186
Properties=species:S:1:pos:R:3 pbc="F F F"
C        1.79146432       1.79146432      -1.79146432
C        2.76326677       1.20895648      -2.60315058
C        3.55858036       2.01584163      -3.42267005
C        3.38236403       3.40656407      -3.43512378
C        2.40816999       3.98171691      -2.60315861
C        1.61328958       3.17363713      -1.78361244
C        4.22497783       4.21262674      -4.36609285
O        5.09850225       3.73775330      -5.07240457
O        3.81157764       5.53422732      -4.31347180
C        4.30870483       6.44214682      -5.26319717
C        4.67962473       7.70208411      -4.79305434
C        5.09620295       8.67685269      -5.70006103
C        5.11125766       8.38837874      -7.06919512
C        5.52901014       9.40848120      -8.04745403
N        6.20749667      10.44977979      -7.68914426
N        6.51452028      11.31877014      -8.69175450
C        7.49766241      12.27298677      -8.50400496
O        8.14902001      12.39345515      -7.46759877
C        7.74920118      13.23143075      -9.62932083
C        8.37753693      14.43736613      -9.25382832
C        8.65771086      15.43702872     -10.18683970
C        8.31398595      15.25169270     -11.51908265
C        7.70552141      14.06203522     -11.91702876
C        7.42836971      13.04722482     -10.98495073
Br       6.67231799      11.46445733     -11.72360430
C        4.71923038       7.12991548      -7.53660272
C        4.31414580       6.15116641      -6.62812654
H        2.90569493       0.13111269      -2.61177723
H        4.31076136       1.55240134      -4.05892191
H        2.24516256       5.05716163      -2.58205718
H        0.85646512       3.63178370      -1.15080729
H        4.64451790       7.92847431      -3.73134100
H        5.39464967       9.65984462      -5.34059363
H        5.25469531       9.22513873      -9.10211798
H        6.04463552      11.22608338      -9.58488647
H        8.65450675      14.60624051      -8.21264647
H        9.14415665      16.35561577      -9.86708354
H        8.52811906      16.02725283     -12.25050401
H        7.45872142      13.93089356     -12.96907001
H        4.73689251       6.89636556      -8.59753739
H        4.00816916       5.17432844      -6.99144912
C       -1.79146432      -1.79146432      -1.79146432
C       -1.30414580      -3.00970840      -2.26151963
C       -2.11834777      -3.82396496      -3.05477930
C       -3.42261126      -3.42390962      -3.37753101
C       -3.89681931      -2.18837325      -2.90785296
C       -3.08142051      -1.37454416      -2.11457449
C       -4.26303708      -4.35548832      -4.18517202
O       -3.86087060      -5.41724838      -4.63054115
O       -5.54186745      -3.83135766      -4.28605165
C       -6.56770398      -4.63376768      -4.81257717
C       -7.44796024      -4.02170743      -5.70509552
C       -8.53951615      -4.74064372      -6.19295680
C       -8.75273514      -6.05456289      -5.76153348
C       -9.90977202      -6.82683350      -6.24833985
N      -10.55426166      -6.47799635      -7.31416271
N      -11.61121604      -7.27165187      -7.64217701
C      -12.15992488      -7.20494936      -8.90977991
O      -11.74341330      -6.46608571      -9.80057492
C      -13.35438918      -8.06753598      -9.18802761
C      -14.15414236      -7.64428108     -10.27030793
C      -15.31155557      -8.33286552     -10.63715820
C      -15.69528026      -9.46241772      -9.92706333
C      -14.91305466      -9.90877922      -8.86275151
C      -13.74153071      -9.22590193      -8.49311262
Br     -12.76033169     -10.02728875      -7.07275917
C       -7.87816559      -6.65642222      -4.85116076
C       -6.77961219      -5.94116866      -4.37265789
H       -0.29821082      -3.33830580      -2.01206824
H       -1.73259693      -4.77728107      -3.41220661
H       -4.90141497      -1.84194021      -3.14102619
H       -3.46476205      -0.42405225      -1.75024181
H       -7.29093927      -2.99396327      -6.01943067
H       -9.22656309      -4.27289985      -6.89562497
H      -10.18103732      -7.72948135      -5.67143334
H      -11.95719558      -7.93745793      -6.96095187
H      -13.87384843      -6.75837076     -10.84117454
H      -15.90701110      -7.98273576     -11.47710911
H      -16.59667988     -10.00234462     -10.20685140
H      -15.22361244     -10.80552275      -8.32954980
H       -8.03283934      -7.67918107      -4.51877505
H       -6.10135985      -6.40821917      -3.66436770
C       -1.79146432       1.79146432       1.79146432
C       -3.05358833       1.34392531       2.17786019
C       -3.85319078       2.14484253       2.99905873
C       -3.39193245       3.39362225       3.43849719
C       -2.12347384       3.83798454       3.03158714
C       -1.32452673       3.03607704       2.20993538
C       -4.26719269       4.18299237       4.35351236
O       -5.38464316       3.83131224       4.69270473
O       -3.58074487       5.31467358       4.76385831
C       -4.11613442       6.09844182       5.79947258
C       -4.05960089       7.48231269       5.63284960
C       -4.49325696       8.31524685       6.66461287
C       -4.95328678       7.75436959       7.86117514
C       -5.39823498       8.61467125       8.97203915
N       -5.70788856       9.85611786       8.78241430
N       -6.08867666      10.53878590       9.89758236
C       -6.74988311      11.74738305       9.77738799
O       -7.04268995      12.26613580       8.70124818
C       -7.09387197      12.47171081      11.04436998
C       -7.31629443      13.85680496      10.89563198
C       -7.62428050      14.66918545      11.98811332
C       -7.71613265      14.11217969      13.25644896
C       -7.51508011      12.74303872      13.42646657
C       -7.21344930      11.91713504      12.32996092
Br      -7.05461600      10.06544527      12.74031835
C       -4.98899236       6.36655147       8.03020474
C       -4.56653378       5.53343235       6.99347262
H       -3.42167564       0.37379002       1.85311919
H       -4.83503717       1.78495592       3.30209151
H       -1.73315807       4.80279815       3.34842514
H       -0.34044459       3.38896724       1.90964428
H       -3.68036640       7.91320032       4.71076649
H       -4.45967848       9.39588788       6.53952156
H       -5.47678311       8.13884618       9.96632272
H       -5.91946826      10.12778029      10.80835683
H       -7.24712859      14.31693348       9.90933166
H       -7.79157222      15.73371115      11.84157259
H       -7.95417377      14.73990374      14.11179839
H       -7.60737252      12.32431865      14.42699382
H       -5.35323523       5.92424535       8.95331488
H       -4.59282230       4.45560575       7.12551867
C        1.79146432      -1.79146432       1.79146432
C        1.39859052      -3.09731885       2.07946446
C        2.21490068      -3.90923518       2.87295619
C        3.42728125      -3.41885863       3.37791200
C        3.80522357      -2.09726606       3.09055590
C        2.98777980      -1.28589039       2.29686897
C        4.28118124      -4.34574081       4.17677537
O        3.95748952      -5.48558118       4.46558944
O        5.47682624      -3.71046209       4.47198843
C        6.52782058      -4.45962445       5.02660380
C        7.24012798      -3.86586045       6.06877475
C        8.35065174      -4.52157980       6.60088514
C        8.75154448      -5.75099656       6.06629048
C        9.93287076      -6.45275476       6.59931985
N       10.42409686      -6.16225460       7.76006926
N       11.52480368      -6.87746110       8.12278014
C       11.93260105      -6.89805191       9.44400118
O       11.34885580      -6.30889366      10.35232447
C       13.18195426      -7.66204527       9.76595323
C       13.81671716      -7.28422540      10.96778881
C       15.00110691      -7.88980764      11.39066473
C       15.57794611      -8.88870151      10.61811368
C       14.96128981      -9.28961397       9.43368162
C       13.76386686      -8.69077897       9.00589943
Br      13.02589433      -9.42288581       7.41159947
C        8.04551179      -6.33210989       5.00812690
C        6.92754199      -5.68177938       4.48411738
H        0.46581405      -3.49529208       1.68747872
H        1.90415049      -4.93038922       3.08754490
H        4.73631726      -1.67997537       3.46808874
H        3.29715665      -0.26699889       2.07490056
H        6.93851940      -2.90065111       6.46516271
H        8.90712022      -4.06867912       7.41928858
H       10.35980809      -7.25348553       5.96865839
H       12.00961943      -7.42488272       7.42110323
H       13.38332973      -6.50027380      11.58979019
H       15.46638261      -7.57771747      12.32275588
H       16.50135730      -9.36328340      10.94123520
H       15.42202746     -10.08544599       8.85121155
H        8.34605466      -7.29060951       4.59413129
H        6.38025521      -6.13248372       3.66120779
C       -0.00445707       0.01189536      -1.78238275
H       -0.66409135       0.67374010      -2.43557963
H        0.65740317      -0.63156657      -2.45157240
C       -0.90989263      -0.90692880      -0.91072765
C        0.90977584       0.90977584      -0.90977584
C       -0.00465871       1.77757030       0.00794375
H       -0.66225468       2.44313916      -0.64384735
H        0.64322798       2.43503045       0.67728295
C       -1.78241447       0.00034974      -0.00472694
H       -2.45427497      -0.65498947       0.64260836
H       -2.43311707       0.67328779      -0.65473579
C       -0.91132561       0.90220522       0.91563759
C       -0.01476271      -0.02253852       1.78660255
H       -0.67934791      -0.69751639       2.42135241
H        0.63392994       0.61504881       2.47327442
C        0.01484550      -1.77751727      -0.01636693
H        0.67870853      -2.42144646      -0.68295456
H       -0.62264859      -2.45592969       0.64226336
C        1.78714474       0.01002794       0.00389507
H        2.44202412       0.67113390       0.66197326
H        2.45385902      -0.65136977      -0.64189061
C        0.91606151      -0.90478549       0.90901405
