165
Properties=species:S:1:pos:R:3 pbc="F F F"
C        0.00000000       0.00000000       0.00000000
C        0.88156030       0.88156030      -0.88156030
C        1.85336275       0.29905246      -1.69324655
C        2.64867634       1.10593760      -2.51276602
C        2.47246001       2.49666004      -2.52521976
C        1.49826597       3.07181289      -1.69325459
C        0.70338556       2.26373311      -0.87370842
C        3.31507381       3.30272272      -3.45618883
O        4.18859823       2.82784928      -4.16250055
O        2.90167362       4.62432330      -3.40356778
C        3.39880081       5.53224280      -4.35329314
C        3.76972071       6.79218009      -3.88315031
C        4.18629892       7.76694867      -4.79015701
C        4.20135363       7.47847471      -6.15929109
C        4.61910611       8.49857718      -7.13755000
N        5.29759265       9.53987577      -6.77924023
N        5.60461625      10.40886612      -7.78185048
C        6.58775838      11.36308275      -7.59410094
O        7.23911598      11.48355113      -6.55769475
C        6.83929716      12.32152673      -8.71941681
C        7.46763290      13.52746210      -8.34392429
C        7.74780683      14.52712469      -9.27693568
C        7.40408193      14.34178867     -10.60917863
C        6.79561738      13.15213120     -11.00712474
C        6.51846568      12.13732080     -10.07504670
Br       5.76241397      10.55455330     -10.81370028
C        3.80932636       6.22001145      -6.62669869
C        3.40424177       5.24126239      -5.71822251
H        1.99579091      -0.77879134      -1.70187321
H        3.40085733       0.64249732      -3.14901789
H        1.33525853       4.14725761      -1.67215316
H       -0.05343890       2.72187967      -0.24090327
H        3.73461388       7.01857029      -2.82143698
H        4.48474565       8.74994059      -4.43068960
H        4.34479128       8.31523471      -8.19221395
H        5.13473150      10.31617936      -8.67498245
H        7.74460272      13.69633649      -7.30274244
H        8.23425262      15.44571174      -8.95717952
H        7.61821504      15.11734880     -11.34059999
H        6.54881740      13.02098954     -12.05916599
H        3.82698849       5.98646153      -7.68763337
H        3.09826514       4.26442442      -6.08154509
C       -0.88156030      -0.88156030      -0.88156030
C       -0.86310753      -2.26545418      -0.71710004
C       -1.68338235      -3.07055009      -1.51344752
C       -2.52629569      -2.49411143      -2.47393270
C       -2.52591456      -1.09943963      -2.63797926
C       -1.70481252      -0.29504532      -1.84096924
C       -3.41602831      -3.39785342      -3.26010362
O       -3.40884939      -4.61306948      -3.15702919
O       -4.24713780      -2.62610671      -4.05632017
C       -5.31955005      -3.24341020      -4.72137650
C       -5.54406654      -2.85786490      -6.04311966
C       -6.64714548      -3.36818502      -6.72807410
C       -7.52761055      -4.23725164      -6.07425725
C       -8.71008018      -4.77362751      -6.77152561
N       -8.79875072      -4.75613615      -8.06182178
N       -9.95118137      -5.27023762      -8.57391386
C      -10.02328651      -5.60892037      -9.91273519
O       -9.08829147      -5.48916988     -10.70290051
C      -11.33734870      -6.12026926     -10.42262274
C      -11.52099635      -6.00173466     -11.81628828
C      -12.70186080      -6.41429235     -12.43571406
C      -13.72747973      -6.95527566     -11.67229384
C      -13.56367054      -7.09628277     -10.29492002
C      -12.37408621      -6.69144347      -9.66530350
Br     -12.29878943      -7.03673060      -7.79514751
C       -7.30863689      -4.60466219      -4.74273742
C       -6.19850387      -4.10359017      -4.06163263
H       -0.22190958      -2.72689021       0.02992701
H       -1.66819348      -4.15021784      -1.37396122
H       -3.16287862      -0.61608383      -3.37570685
H       -1.72117799       0.78453877      -1.97270482
H       -4.87036016      -2.16515900      -6.53910198
H       -6.82499373      -3.07840406      -7.76197806
H       -9.50226990      -5.21202402      -6.13794602
H      -10.73363573      -5.43971979      -7.95253779
H      -10.73017552      -5.57756341     -12.43594273
H      -12.81344003      -6.31114854     -13.51255532
H      -14.65044912      -7.27710409     -12.14861061
H      -14.37412559      -7.53740131      -9.71744603
H       -7.98337889      -5.28591080      -4.23179371
H       -6.02946775      -4.38778325      -3.02698365
C       -0.88156030       0.88156030       0.88156030
C       -2.25496982       0.93927378       0.65141816
C       -3.06361489       1.73376487       1.47000021
C       -2.50185624       2.47003159       2.52245198
C       -1.11501455       2.41276666       2.73555223
C       -0.30701604       1.61784827       1.91596278
C       -3.41924592       3.26061722       3.39412220
O       -4.62109690       3.35053221       3.20731894
O       -2.68666027       3.80723151       4.43567291
C       -3.36861597       4.40996185       5.50575894
C       -2.84839978       5.61282827       5.98382306
C       -3.42778200       6.21418849       7.10143411
C       -4.50374850       5.59157823       7.74379271
C       -5.11936784       6.19836404       8.93750142
N       -4.94231014       7.44624377       9.22815474
N       -5.55638383       7.87240151      10.36654751
C       -5.71871921       9.22562569      10.60059717
O       -5.34907650      10.10603445       9.82525091
C       -6.35564190       9.62742596      11.89717284
C       -6.08062501      10.94787793      12.31051636
C       -6.58532228      11.45937162      13.50717331
C       -7.37769367      10.65871966      14.31863590
C       -7.67560416       9.35504708      13.92422209
C       -7.17846997       8.83596178      12.71640143
Br      -7.75646696       7.07008673      12.30411385
C       -5.00840241       4.37556626       7.27206783
C       -4.43644915       3.78036753       6.14690999
H       -2.70695359       0.36674407      -0.15482488
H       -4.13648512       1.76795822       1.28792919
H       -0.64217354       2.97334343       3.53915232
H        0.76454461       1.57592543       2.09796321
H       -1.99855517       6.08069482       5.49537115
H       -3.03275156       7.15664762       7.47597667
H       -5.75740997       5.54017890       9.55465108
H       -5.92812895       7.18546665      11.01229771
H       -5.45859172      11.59447481      11.69061513
H       -6.35678235      12.48192192      13.79843962
H       -7.77260692      11.05074633      15.25281058
H       -8.31160572       8.74972624      14.56764097
H       -5.84921297       3.89113097       7.76073944
H       -4.82748858       2.83511970       5.78162638
C        0.88156030      -0.88156030       0.88156030
C        0.29660265      -1.72167914       1.82737996
C        1.10393403      -2.54097912       2.62246681
C        2.49763302      -2.52476000       2.47194679
C        3.07490470      -1.66445894       1.52396981
C        2.26637068      -0.84516213       0.72929427
C        3.30535129      -3.45636640       3.31226767
O        2.82782613      -4.18735363       4.16376831
O        4.63307211      -3.37194560       2.92454698
C        5.54926923      -4.31401709       3.42105043
C        6.79326297      -3.82792848       3.82385965
C        7.77696265      -4.72457730       4.24186465
C        7.51377417      -6.09879320       4.22655207
C        8.54409600      -7.06586418       4.64527311
N        9.56598963      -6.70128244       5.34943658
N       10.44772522      -7.69339617       5.65421147
C       11.38017612      -7.50657245       6.65819350
O       11.46943678      -6.48043237       7.33049270
C       12.35462998      -8.61868504       6.90692568
C       13.54170056      -8.23298782       7.56433093
C       14.55325985      -9.15264121       7.84596614
C       14.39903869     -10.48142308       7.47458746
C       13.22829526     -10.88963862       6.83693944
C       12.20155548      -9.97125103       6.55802668
Br      10.64686644     -10.72449087       5.75931023
C        6.27158846      -6.58172806       3.80271998
C        5.28367247      -5.68389668       3.39615752
H       -0.78331502      -1.75263066       1.94955714
H        0.63875067      -3.19946487       3.35415700
H        4.15256784      -1.62069796       1.38140350
H        2.72641101      -0.19013222      -0.00719919
H        7.00047213      -2.76178950       3.81235951
H        8.74748657      -4.35283511       4.56505417
H        8.38543820      -8.11841577       4.34838597
H       10.38025892      -8.57917839       5.16645600
H       13.68609745      -7.19422727       7.86335693
H       15.45670685      -8.82526897       8.35516807
H       15.18402835     -11.20241834       7.68971714
H       13.12126940     -11.93912705       6.56857648
H        6.05752604      -7.64689494       3.79666241
H        4.31950960      -6.05924034       3.06548471
