173
Properties=species:S:1:pos:R:3 pbc="F F F"
C        0.00000000       0.00000000       0.00000000
C        0.88156030       0.88156030      -0.88156030
C        1.85336275       0.29905246      -1.69324655
C        2.64867634       1.10593760      -2.51276602
C        2.47246001       2.49666004      -2.52521976
C        1.49826597       3.07181289      -1.69325459
C        0.70338556       2.26373311      -0.87370842
C        3.31507381       3.30272272      -3.45618883
O        4.18859823       2.82784928      -4.16250055
O        2.90167362       4.62432330      -3.40356778
C        3.39880081       5.53224280      -4.35329314
C        3.76972071       6.79218009      -3.88315031
C        4.18629892       7.76694867      -4.79015701
C        4.20135363       7.47847471      -6.15929109
C        4.61910611       8.49857718      -7.13755000
N        5.29759265       9.53987577      -6.77924023
N        5.60461625      10.40886612      -7.78185048
C        6.58775838      11.36308275      -7.59410094
O        7.23911598      11.48355113      -6.55769475
C        6.83929716      12.32152673      -8.71941681
C        7.46763290      13.52746210      -8.34392429
C        7.74780683      14.52712469      -9.27693568
C        7.40408193      14.34178867     -10.60917863
C        6.79561738      13.15213120     -11.00712474
C        6.51846568      12.13732080     -10.07504670
C        3.80932636       6.22001145      -6.62669869
C        3.40424177       5.24126239      -5.71822251
H        1.99579091      -0.77879134      -1.70187321
H        3.40085733       0.64249732      -3.14901789
H        1.33525853       4.14725761      -1.67215316
H       -0.05343890       2.72187967      -0.24090327
H        3.73461388       7.01857029      -2.82143698
H        4.48474565       8.74994059      -4.43068960
H        4.34479128       8.31523471      -8.19221395
H        5.13473150      10.31617936      -8.67498245
H        7.74460272      13.69633649      -7.30274244
H        8.23425262      15.44571174      -8.95717952
H        7.61821504      15.11734880     -11.34059999
H        6.54881740      13.02098954     -12.05916599
H        3.82698849       5.98646153      -7.68763337
H        3.09826514       4.26442442      -6.08154509
C        5.94643778      10.93980063     -10.63391119
C        5.46736440       9.93687749     -11.10196021
Br       4.69274328       8.31523559     -11.85875587
C       -0.88156030      -0.88156030      -0.88156030
C       -0.70957475      -2.26462535      -0.87146165
C       -1.52873237      -3.07223355      -1.66641404
C       -2.52374937      -2.49959818      -2.47099226
C       -2.67811727      -1.10386038      -2.48135580
C       -1.85800033      -0.29692110      -1.68590565
C       -3.40082423      -3.41335224      -3.25980888
O       -3.26323250      -4.62476660      -3.29094896
O       -4.38543560      -2.66235512      -3.88177397
C       -5.45813118      -3.32455554      -4.50165003
C       -5.86205989      -2.83792318      -5.74506804
C       -6.97775784      -3.39568491      -6.36996186
C       -7.69218398      -4.41544829      -5.73148716
C       -8.88519899      -5.00642514      -6.36360916
N       -9.11520338      -4.87215443      -7.62935083
N      -10.26051544      -5.45599804      -8.07881937
C      -10.44446551      -5.66748456      -9.43299201
O       -9.61741629      -5.36961585     -10.29332972
C      -11.74969198      -6.26643119      -9.86411753
C      -12.09482514      -6.03241240     -11.21178176
C      -13.28992293      -6.50837397     -11.75357031
C      -14.16819077      -7.23017097     -10.95668749
C      -13.84225116      -7.48698187      -9.62564029
C      -12.63666000      -7.01870536      -9.07546782
C       -7.29445279      -4.88570529      -4.47587843
C       -6.17128881      -4.33594536      -3.85649251
H        0.05136499      -2.72452906      -0.24570871
H       -1.39255289      -4.15226551      -1.64755414
H       -3.43600691      -0.62272521      -3.09593718
H       -1.99449105       0.78213926      -1.69699225
H       -5.31765381      -2.03063006      -6.22633727
H       -7.29476485      -3.02694572      -7.34366528
H       -9.55677449      -5.58856999      -5.70689547
H      -10.95018146      -5.76987692      -7.40583492
H      -11.42169055      -5.46585481     -11.85613630
H      -13.52773871      -6.31282082     -12.79658435
H      -15.10149371      -7.60233135     -11.37233877
H      -14.53774004      -8.06830313      -9.02292976
H       -7.83937767      -5.68324608      -3.97845964
H       -5.86346590      -4.70019024      -2.88057851
C      -12.40051059      -7.40978190      -7.70985711
C      -12.20273545      -7.73730850      -6.56615815
Br     -11.88294979      -8.26689130      -4.71689365
C       -0.88156030       0.88156030       0.88156030
C       -2.17823174       0.47551479       1.19191523
C       -2.97875945       1.27548977       2.01313075
C       -2.48407328       2.48168885       2.52857768
C       -1.18028477       2.88516832       2.19788036
C       -0.38043356       2.08425457       1.37613895
C       -3.36487914       3.26949960       3.43960661
O       -4.51084576       2.95459502       3.71350728
O       -2.64922152       4.34985367       3.93048950
C       -3.19656093       5.11136465       4.97641117
C       -3.07234750       6.49716869       4.87553492
C       -3.51584080       7.30328748       5.92427633
C       -4.05379712       6.71238868       7.07293364
C       -4.51096794       7.54289274       8.20137261
N       -4.75736576       8.80421477       8.05512811
N       -5.15842834       9.45433142       9.18257309
C       -5.76026966      10.69584145       9.08883096
O       -5.98096809      11.27370857       8.02568519
C       -6.12969985      11.37925570      10.37128514
C       -6.28464956      12.77819299      10.27617675
C       -6.60637865      13.55543992      11.39004863
C       -6.77998426      12.94853257      12.62653240
C       -6.64663604      11.56556314      12.74267415
C       -6.33165492      10.77528405      11.62389421
C       -4.15750515       5.32159298       7.17693838
C       -3.72496912       4.51601520       6.12274236
H       -2.57302587      -0.46182159       0.80766851
H       -3.98810298       0.94779925       2.25647031
H       -0.76317827       3.81652621       2.57496482
H        0.63071214       2.40474156       1.13531462
H       -2.63316897       6.95006879       3.99138338
H       -3.42961973       8.38570035       5.85005577
H       -4.65529630       7.02832378       9.16861986
H       -5.04887219       8.99681561      10.08020551
H       -6.15073102      13.27717601       9.31577462
H       -6.72035477      14.63184088      11.28494824
H       -7.02915362      13.54862484      13.49838537
H       -6.80248084      11.10833953      13.71815256
H       -4.58226532       4.85657034       8.06224773
H       -3.80410862       3.43577694       6.20434909
C       -6.28680120       9.35810043      11.87524797
C       -6.24923621       8.17120914      12.08575675
Br      -6.18849680       6.25210631      12.42613163
C        0.88156030      -0.88156030       0.88156030
C        0.31823495      -1.94922124       1.57820556
C        1.12943394      -2.76609191       2.37185412
C        2.50609559      -2.51961120       2.46863302
C        3.05876231      -1.43304982       1.77152131
C        2.24633220      -0.61642997       0.97806491
C        3.33044859      -3.45362516       3.28991160
O        2.86673443      -4.38291456       3.92929906
O        4.66589069      -3.10939362       3.15428038
C        5.64819165      -3.97821875       3.65792635
C        6.71654971      -3.39178168       4.33671971
C        7.76826609      -4.19288234       4.78225617
C        7.75181191      -5.56727037       4.52003716
C        8.86100690      -6.43023479       4.96399161
N        9.68981361      -6.04685990       5.88003514
N       10.67535889      -6.93633013       6.18364383
C       11.40376527      -6.79105647       7.35012033
O       11.21453918      -5.89481330       8.17100937
C       12.50859081      -7.77409115       7.59755873
C       13.50148304      -7.33781071       8.49972555
C       14.60433571      -8.13364463       8.81388687
C       14.73843800      -9.38621235       8.23039888
C       13.76243979      -9.84544281       7.34699072
C       12.64462151      -9.05354162       7.03267005
C        6.68775649      -6.14673522       3.82154479
C        5.63004897      -5.34708057       3.38659713
H       -0.74611668      -2.15907225       1.50591721
H        0.68279665      -3.60224057       2.90733532
H        4.12169727      -1.20752878       1.82544325
H        2.68926344       0.21642829       0.43650889
H        6.73569279      -2.32102245       4.51790590
H        8.60174816      -3.74420053       5.31942715
H        8.93208489      -7.42730625       4.49284880
H       10.83444175      -7.72458498       5.56686658
H       13.41858656      -6.35663472       8.96846037
H       15.35284703      -7.77019039       9.51410647
H       15.59604284     -10.01033809       8.46978290
H       13.87908530     -10.83688139       6.91300624
H        6.66434898      -7.21451805       3.62221636
H        4.80448373      -5.79704189       2.84270903
C       11.68629704      -9.67681908       6.15703348
C       10.88370030     -10.19881396       5.42368784
Br       9.58596925     -11.04283552       4.23792997
