170
Properties=species:S:1:pos:R:3 pbc="F F F"
O        2.28411027       9.44019429      -4.81865779
C        2.79997447       8.40921302      -4.37706335
N        2.02200870       7.34302368      -3.99384861
N        2.56922268       6.14237753      -3.66940089
C        1.73374164       5.24064974      -3.26359325
C        2.18694983       3.88033446      -2.91886771
C        3.42546840       3.40791593      -3.36686863
C        3.84006374       2.11892600      -3.02930786
C        3.02449618       1.31080447      -2.23583313
C        1.79199470       1.79199470      -1.79199470
C        1.35968066       3.07215570      -2.13630239
C        4.30984868       8.26272194      -4.19046513
N        4.99249861       9.32768909      -4.90680418
C        6.36342678       9.41700860      -4.90759063
O        7.06648213       8.64979026      -4.25641398
C        6.99547064      10.47550446      -5.75539103
C        6.26249985      11.38487960      -6.53203676
C        6.92204253      12.32445808      -7.33136217
C        8.31486993      12.36459275      -7.36211554
C        9.04639709      11.46820003      -6.58713364
C        8.39750899      10.52880915      -5.78646512
H        1.01848890       7.44360362      -4.09670090
H        0.65566496       5.45381627      -3.14383611
H        4.06841354       4.03420615      -3.98217896
H        4.80004991       1.74815061      -3.38024608
H        3.36034068       0.31227601      -1.96697568
H        0.40161637       3.43954889      -1.78040642
H        4.66668404       7.30671637      -4.58470160
H        4.55477717       8.34249044      -3.12605645
H        4.39567864       9.97252774      -5.40630432
H        5.17810790      11.38986176      -6.54484741
H        6.34639185      13.02232095      -7.93556136
H        8.81825792      13.09466909      -7.99063935
H        8.97985496       9.82905854      -5.19005539
C       10.48547570      11.50848606      -6.61922378
C       11.69070404      11.54222560      -6.64609928
Br      13.63945633      11.59677959      -6.68955469
O       -8.30809851      -1.41346273      -6.82140111
C       -7.21486177      -1.88144885      -6.48994022
N       -6.56661671      -1.42490655      -5.36735772
N       -5.45317204      -2.03918355      -4.88864551
C       -4.90152302      -1.47293346      -3.86352814
C       -3.71148132      -2.05709194      -3.21757874
C       -3.37143484      -3.39741232      -3.43140580
C       -2.24045209      -3.93352438      -2.81432113
C       -1.44573339      -3.12826437      -1.99713603
C       -1.79199470      -1.79199470      -1.79199470
C       -2.92871798      -1.24936870      -2.39005207
C       -6.49866588      -2.95318690      -7.31118297
N       -7.42691707      -3.53069430      -8.26938051
C       -7.03233590      -4.52947468      -9.12621543
O       -5.87306582      -4.93101943      -9.16860112
C       -8.07186715      -5.14693365     -10.00756533
C       -9.41684905      -4.74896981     -10.01359734
C      -10.34255255      -5.39784183     -10.83746841
C       -9.93494665      -6.44633068     -11.66030089
C       -8.59916461      -6.83994187     -11.66262428
C       -7.66909138      -6.19821959     -10.84547230
H       -7.02861742      -0.69934036      -4.83083564
H       -5.28587293      -0.52650676      -3.44093766
H       -3.98407009      -4.02985600      -4.07087256
H       -1.97699268      -4.97604277      -2.97541115
H       -0.55930788      -3.55032257      -1.52996192
H       -3.18588634      -0.20653511      -2.22915025
H       -6.12685882      -3.75930491      -6.67193828
H       -5.66713350      -2.49727198      -7.85891859
H       -8.36736804      -3.16121741      -8.24592525
H       -9.78261833      -3.94204416      -9.38815458
H      -11.38513329      -5.08729926     -10.83184162
H      -10.66277102      -6.94798677     -12.29280857
H       -6.62907901      -6.51888446     -10.85100543
C       -8.17757905      -7.92381435     -12.51179213
C       -7.82450115      -8.83155756     -13.22297021
Br      -7.25360404     -10.29930155     -14.37288502
O       -2.68285143       9.60445836       4.25565257
C       -3.14382577       8.50406086       3.93836421
N       -2.31183197       7.47238695       3.57466207
N       -2.78095809       6.21070733       3.38933568
C       -1.90715707       5.34497273       2.98585482
C       -2.27120704       3.93014580       2.78479916
C       -3.42849347       3.40317638       3.36858310
C       -3.75953373       2.06276460       3.16599927
C       -2.94289427       1.25642466       2.37181485
C       -1.79199470       1.79199470       1.79199470
C       -1.44210204       3.12554639       2.00049032
C       -4.64621869       8.22767011       3.88914695
N       -5.35794501       9.29299202       4.57605485
C       -6.72747871       9.27704169       4.68350560
O       -7.41230476       8.40707189       4.15330972
C       -7.37833918      10.35068413       5.49734282
C       -6.66596857      11.37457896       6.13886868
C       -7.33801241      12.32394662       6.91590376
C       -8.72294397      12.25993195       7.05870231
C       -9.43482775      11.24918495       6.41771805
C       -8.77348884      10.29907828       5.64021614
H       -1.31516846       7.65753023       3.58609473
H       -0.86274390       5.62925421       2.76131924
H       -4.07217165       4.02728484       3.98534215
H       -4.65589347       1.65004105       3.62251208
H       -3.21448125       0.21633083       2.20878030
H       -0.54775081       3.53435197       1.53946891
H       -4.89150963       7.28311988       4.38347250
H       -4.97753352       8.20009404       2.84569650
H       -4.78013760      10.02068599       4.97368712
H       -5.58791455      11.46345911       6.06144342
H       -6.77762811      13.11137716       7.41526889
H       -9.23553595      12.99892456       7.66910585
H       -9.33977424       9.50990522       5.14928943
C      -10.86562642      11.18189683       6.56566230
C      -12.06392029      11.12554303       6.68956560
Br     -14.00146015      11.03442369       6.88990677
O        8.00590536      -1.35144955       7.18560744
C        6.95890448      -1.85689684       6.77044953
N        6.34598140      -1.37367198       5.63922761
N        5.29457647      -2.01793156       5.06849307
C        4.76683946      -1.42564177       4.04550340
C        3.64612951      -2.03465572       3.30536677
C        3.36973520      -3.40064101       3.42987675
C        2.30376035      -3.96025413       2.72428312
C        1.50963376      -3.15378692       1.90771310
C        1.79199470      -1.79199470       1.79199470
C        2.86432798      -1.22453860       2.47927217
C        6.26094151      -3.00817093       7.49392331
N        7.16830811      -3.58833952       8.47034426
C        6.78515531      -4.65203785       9.25083284
O        5.64913570      -5.11527648       9.20827420
C        7.80969349      -5.26200038      10.15467226
C        9.12855907      -4.79530484      10.25555230
C       10.04432876      -5.43936563      11.09416840
C        9.65270211      -6.55143591      11.83744021
C        8.34233391      -7.01377136      11.74562548
C        7.42225019      -6.37743794      10.91309514
H        6.79468856      -0.59652539       5.16757947
H        5.12000574      -0.43860132       3.69471028
H        3.98206096      -4.03450561       4.06823208
H        2.09008032      -5.02239312       2.81597316
H        0.67340226      -3.59516664       1.37102347
H        3.07170790      -0.16242409       2.38743969
H        5.96798344      -3.79615955       6.79395902
H        5.37809913      -2.62715206       8.01807287
H        8.08691798      -3.16954203       8.51805069
H        9.48147241      -3.93715863       9.69418604
H       11.06708967      -5.07498315      11.16220134
H       10.37304340      -7.04849359      12.48202938
H        6.40261273      -6.75177429      10.84458188
C        7.93734230      -8.16330374      12.51253950
C        7.59816183      -9.12603711      13.15482999
Br       7.04973569     -10.68269554      14.19335938
C       -0.00445707       0.01189536      -1.78238275
H       -0.66409135       0.67374010      -2.43557963
H        0.65740317      -0.63156657      -2.45157240
C       -0.90989263      -0.90692880      -0.91072765
C        0.90977584       0.90977584      -0.90977584
C       -0.00465871       1.77757030       0.00794375
H       -0.66225468       2.44313916      -0.64384735
H        0.64322798       2.43503045       0.67728295
C       -1.78241447       0.00034974      -0.00472694
H       -2.45427497      -0.65498947       0.64260836
H       -2.43311707       0.67328779      -0.65473579
C       -0.91132561       0.90220522       0.91563759
C       -0.01476271      -0.02253852       1.78660255
H       -0.67934791      -0.69751639       2.42135241
H        0.63392994       0.61504881       2.47327442
C        0.01484550      -1.77751727      -0.01636693
H        0.67870853      -2.42144646      -0.68295456
H       -0.62264859      -2.45592969       0.64226336
C        1.78714474       0.01002794       0.00389507
H        2.44202412       0.67113390       0.66197326
H        2.45385902      -0.65136977      -0.64189061
C        0.91606151      -0.90478549       0.90901405
