33
Properties=species:S:1:pos:R:3 pbc="F F F"
C        0.00000000       0.00000000       0.00000000
C        0.87169446       0.87169446      -0.87169446
C        0.67967308       2.22302805      -1.02987706
C        1.65575350       2.78386151      -1.91173163
C        2.52543035       1.82143591      -2.36568604
Br       3.94068296       2.17526447      -3.54008747
S        2.19100073       0.27355593      -1.75591817
H       -0.10923258       2.78791817      -0.54815858
H        1.70537218       3.83006172      -2.18747895
C       -0.87169446      -0.87169446      -0.87169446
C       -0.52769443      -2.14367755      -1.26120621
C       -1.54466514      -2.72586089      -2.08082062
C       -2.59475468      -1.85763133      -2.26016630
Br      -4.11452840      -2.26603259      -3.27547391
S       -2.37981809      -0.37213912      -1.46851761
H        0.39452402      -2.63896374      -0.98240445
H       -1.49614654      -3.72082343      -2.50594288
C       -0.87169446       0.87169446       0.87169446
C       -2.06051255       0.45310989       1.41895574
C       -2.66507058       1.49014682       2.19612925
C       -1.89556644       2.62877587       2.18820999
Br      -2.36116169       4.19984266       3.09503055
S       -0.47546670       2.47248496       1.27252317
H       -2.48284571      -0.53453473       1.27853319
H       -3.60632701       1.39346317       2.72312267
C        0.87169446      -0.87169446       0.87169446
C        2.11887368      -0.50060833       1.31309618
C        2.70772950      -1.52486547       2.11875167
C        1.86894530      -2.60710966       2.23649735
Br       2.29440356      -4.14550982       3.21612151
S        0.40295910      -2.41347385       1.40404187
H        2.59240016       0.44537196       1.07981597
H        3.68667160      -1.45885235       2.57738890
