62
Properties=species:S:1:pos:R:3 pbc="F F F"
C        1.78159848       1.78159848      -1.78159848
C        1.58957711       3.13293207      -1.93978109
C        2.56565752       3.69376554      -2.82163566
C        3.43533437       2.73133994      -3.27559007
S        3.10090475       1.18345995      -2.66582219
H        0.80067144       3.69782219      -1.45806260
H        2.61527620       4.73996574      -3.09738298
C        4.52352931       3.00340051      -4.17859330
C        5.43489256       3.23125125      -4.93485850
Br       6.90848987       3.59966661      -6.15767537
C       -1.78159848      -1.78159848      -1.78159848
C       -1.44706135      -3.06119827      -2.15403065
C       -2.46148605      -3.64133228      -2.97824039
C       -3.50034225      -2.76406103      -3.17786110
S       -3.27796546      -1.27258032      -2.39964112
H       -0.53314358      -3.56316560      -1.86024706
H       -2.41907794      -4.64121305      -3.39233393
C       -4.66389999      -3.07405507      -3.96756805
C       -5.63837960      -3.33367508      -4.62894763
Br      -7.21403071      -3.75345868      -5.69834246
C       -1.78159848       1.78159848       1.78159848
C       -2.97347441       1.36506560       2.32375026
C       -3.57720972       2.40155050       3.10229850
C       -2.80407565       3.53774403       3.10044469
S       -1.38157169       3.37984002       2.18877518
H       -3.39848983       0.37922065       2.17884576
H       -4.52044069       2.30619165       3.62599258
C       -3.16045722       4.74466033       3.80040557
C       -3.45892678       5.75545273       4.38662280
Br      -3.94152681       7.38981856       5.33448648
C        1.78159848      -1.78159848       1.78159848
C        3.03509788      -1.41693011       2.21026228
C        3.62225325      -2.43946051       3.01934496
C        2.77596641      -3.51408625       3.15221172
S        1.30501096      -3.31540458       2.32977136
H        3.51416831      -0.47657930       1.96580863
H        4.60527649      -2.37759145       3.46975698
C        3.09976130      -4.69357621       3.91218560
C        3.37093953      -5.68139905       4.54866373
Br       3.80941178      -7.27862503       5.57779504
C       -0.00445707       0.01189536      -1.78238275
H       -0.66409135       0.67374010      -2.43557963
H        0.65740317      -0.63156657      -2.45157240
C       -0.90989263      -0.90692880      -0.91072765
C        0.90977584       0.90977584      -0.90977584
C       -0.00465871       1.77757030       0.00794375
H       -0.66225468       2.44313916      -0.64384735
H        0.64322798       2.43503045       0.67728295
C       -1.78241447       0.00034974      -0.00472694
H       -2.45427497      -0.65498947       0.64260836
H       -2.43311707       0.67328779      -0.65473579
C       -0.91132561       0.90220522       0.91563759
C       -0.01476271      -0.02253852       1.78660255
H       -0.67934791      -0.69751639       2.42135241
H        0.63392994       0.61504881       2.47327442
C        0.01484550      -1.77751727      -0.01636693
H        0.67870853      -2.42144646      -0.68295456
H       -0.62264859      -2.45592969       0.64226336
C        1.78714474       0.01002794       0.00389507
H        2.44202412       0.67113390       0.66197326
H        2.45385902      -0.65136977      -0.64189061
C        0.91606151      -0.90478549       0.90901405
