57
Properties=species:S:1:pos:R:3 pbc="F F F"
C        0.00000000       0.00000000       0.00000000
C        0.91214658       0.91214658      -0.91214658
C        1.73579883       0.04645137      -1.81900898
C        1.24797646      -0.33369740      -3.07844513
C        2.00959367      -1.14915201      -3.91888324
C        3.26201512      -1.59321063      -3.50128008
Br       4.29317792      -2.69760408      -4.63750502
C        3.75888940      -1.23182413      -2.25128869
C        2.99656408      -0.41641868      -1.41161396
H        1.53583846       1.51815790      -0.24851489
H        0.25045068       1.57830367      -1.47357788
H        0.26686621      -0.00067412      -3.41203872
H        1.61587057      -1.43428931      -4.89079878
H        4.73287000      -1.58141978      -1.91922829
H        3.39112714      -0.14828654      -0.43352597
C       -0.91214658      -0.91214658      -0.91214658
C       -1.91281348      -1.63151858      -0.05692713
C       -3.16049490      -1.05274358       0.22051429
C       -4.08849941      -1.71694756       1.02612208
C       -3.77087612      -2.96230462       1.56309616
Br      -5.02568264      -3.86165058       2.65425435
C       -2.53418711      -3.54846903       1.30430218
C       -1.60690443      -2.88351386       0.49865893
H       -0.25374215      -1.60648584      -1.44228326
H       -1.39559948      -0.26065901      -1.64607374
H       -3.41657231      -0.07593257      -0.18572593
H       -5.04986713      -1.25357781       1.23106491
H       -2.28014020      -4.51711099       1.72657267
H       -0.64038116      -3.34706148       0.31107607
C       -0.91214658       0.91214658       0.91214658
C       -1.19185327       2.20490702       0.20449889
C       -2.30488603       2.32862867      -0.64079052
C       -2.55972846       3.52859429      -1.30899786
C       -1.69880686       4.61028629      -1.13900857
Br      -2.04223835       6.23441698      -2.04357646
C       -0.58499699       4.50298251      -0.30962554
C       -0.33100264       3.30267624       0.35808048
H       -0.37894422       1.06926471       1.85430232
H       -1.82950293       0.35333128       1.11949803
H       -2.97964458       1.48747874      -0.78889251
H       -3.42615787       3.60650423      -1.96028206
H        0.09260568       5.34262530      -0.17934110
H        0.54738486       3.22767334       0.99607809
C        0.91214658      -0.91214658       0.91214658
C        1.20762143      -0.19660675       2.19703101
C        0.35490493      -0.33519780       3.30262146
C        0.62318843       0.33973696       4.49587342
C        1.74399380       1.16162517       4.58771594
Br       2.10749999       2.07624067       6.20181955
C        2.59728828       1.31680083       3.49786651
C        2.32816066       0.64152044       2.30511913
H        1.82326502      -1.13140289       0.34784333
H        0.37257511      -1.84870742       1.08104971
H       -0.52904251      -0.96724635       3.24002697
H       -0.04836783       0.22124138       5.34198924
H        3.46928950       1.96211124       3.56350025
H        2.99677219       0.77781390       1.45740828
