194
Properties=species:S:1:pos:R:3 pbc="F F F"
Cl       9.38510743      -2.52809440      -0.56825648
C        8.91086854      -0.94774289      -0.07949849
C        9.33030646       0.15866168      -0.81957051
C        8.95438108       1.44329587      -0.42159230
C        8.14875445       1.60613484       0.71153507
C        7.72938990       0.49902014       1.45543296
C        8.11504405      -0.78300786       1.05557173
S        7.70356618       3.24994785       1.23024517
O        6.84957847       3.15049898       2.39320979
O        8.92871864       4.02482345       1.25332427
N        6.79870496       3.81375460      -0.08431543
N        5.57007500       3.18969250      -0.46885591
C        5.05354625       3.64757776      -1.56306264
C        3.77900581       3.12414092      -2.09911847
C        2.98608946       2.29880601      -1.28995976
C        1.79132551       1.79132551      -1.79132551
C        1.39351631       2.08076547      -3.09413311
C        2.18489134       2.90597534      -3.89996850
C        3.37037752       3.45821992      -3.40171920
O        4.18522792       4.29573638      -4.11784513
C        3.61936268       4.93227428      -5.26595959
C        4.43687247       6.15829312      -5.59383190
C        4.97707672       6.34380487      -6.87431204
C        5.68825816       7.50645211      -7.18194482
C        5.86545311       8.49622773      -6.21531815
C        5.33144023       8.31805759      -4.94165090
Br       5.56372490       9.65850826      -3.62921033
C        4.61928146       7.16098002      -4.62772655
H        9.95352688       0.02650025      -1.70043363
H        9.29280597       2.30571233      -0.98978948
H        7.11275188       0.62468008       2.34335824
H        7.79658014      -1.64685309       1.63365422
H        7.25091361       4.55351247      -0.62361991
H        5.56190593       4.44178396      -2.13656141
H        3.29529273       2.06379639      -0.27402598
H        0.46908651       1.66969245      -3.49336709
H        1.84818018       3.08950457      -4.91623652
H        2.58991845       5.26545274      -5.08256680
H        3.63063735       4.22590171      -6.10432714
H        4.84543640       5.58760459      -7.64565911
H        6.10108164       7.64348895      -8.17858792
H        6.41579057       9.39949810      -6.46512055
H        4.19775654       7.03515299      -3.63270622
Cl      -9.61071920       0.95059908       1.23485061
C       -8.83653000      -0.57995776       1.37386362
C       -9.21102602      -1.62258607       0.52507344
C       -8.59092043      -2.86846922       0.64012040
C       -7.58938025      -3.05426412       1.60029015
C       -7.21440799      -2.01151003       2.45294094
C       -7.84393946      -0.76954897       2.33702396
S       -6.82922609      -4.65595621       1.76191343
O       -5.81344892      -4.58218480       2.78876606
O       -7.90731471      -5.62293511       1.83003199
N       -6.08912584      -4.86131881       0.25366966
N       -5.04727713      -3.98841716      -0.19292911
C       -4.66356605      -4.18847350      -1.41214710
C       -3.58816195      -3.38391076      -2.03019249
C       -2.79717746      -2.56174642      -1.21593135
C       -1.79132551      -1.79132551      -1.79132551
C       -1.58319630      -1.81717625      -3.16804236
C       -2.37213137      -2.63943779      -3.97926602
C       -3.36298851      -3.45146319      -3.41586493
O       -4.15776927      -4.30270131      -4.13833885
C       -3.70926789      -4.66070292      -5.44762574
C       -4.38436851      -5.94729719      -5.85733179
C       -5.10181037      -6.03458456      -7.05879869
C       -5.67900220      -7.24425750      -7.45339539
C       -5.54404053      -8.37912055      -6.65383791
C       -4.83272918      -8.29905575      -5.45936380
Br      -4.64188712      -9.83517395      -4.37438242
C       -4.25270842      -7.09555654      -5.05972307
H       -9.98742869      -1.47220108      -0.22083099
H       -8.89254952      -3.68438176      -0.01137650
H       -6.44416189      -2.15769960       3.20778776
H       -7.56029305       0.04293067       3.00128956
H       -6.51451107      -5.58120299      -0.33233194
H       -5.14161515      -4.96602811      -2.03260804
H       -2.95984016      -2.53234787      -0.14092707
H       -0.80952415      -1.20148487      -3.62113703
H       -2.19016622      -2.61393024      -5.04982481
H       -2.62640041      -4.83696428      -5.47457331
H       -3.96509493      -3.85270373      -6.14306754
H       -5.21415012      -5.16341771      -7.70113228
H       -6.23103359      -7.30372998      -8.38839494
H       -5.99217203      -9.31699026      -6.97124693
H       -3.69084826      -7.04529612      -4.12947137
Cl       2.06390088      -0.02576878       9.51493916
C        0.48807975      -0.40816057       8.93886446
C       -0.60079624       0.36664486       9.34109755
C       -1.88227654       0.05466019       8.88233251
C       -2.05875614      -1.02751116       8.01210924
C       -0.96936386      -1.80617305       7.60978627
C        0.30910606      -1.49265394       8.07822447
S       -3.70085383      -1.43792361       7.46033865
O       -3.61468031      -2.56105063       6.55323798
O       -4.53829096      -1.48111910       8.64304596
N       -4.15171753      -0.05302201       6.59807947
N       -3.44674529       0.35868816       5.42318996
C       -3.82289611       1.49921106       4.94207947
C       -3.20846187       2.06951613       3.72428720
C       -2.38400883       1.25872116       2.93212525
C       -1.79132551       1.79132551       1.79132551
C       -1.99534198       3.12535849       1.44771442
C       -2.81975404       3.93290798       2.23817315
C       -3.45645370       3.40618521       3.36767773
O       -4.29876947       4.12373617       4.17630379
C       -4.84791141       5.32970214       3.63998300
C       -6.09697728       5.67996549       4.41205472
C       -6.24697339       6.94019991       5.00802034
C       -7.42832249       7.27222707       5.67610553
C       -8.47229910       6.35057287       5.75412703
C       -8.32961109       5.09720928       5.16432836
Br      -9.74323238       3.84606169       5.26214943
C       -7.15407639       4.75924294       4.49466870
H       -0.45788721       1.20775779      10.01481575
H       -2.73205078       0.64938845       9.20686855
H       -1.10647610      -2.65499042       6.94258805
H        1.15878606      -2.09829828       7.77315716
H       -4.88645633       0.50094140       7.04064828
H       -4.61316784       2.08733667       5.43974678
H       -2.21558424       0.21800592       3.19952494
H       -1.51783519       3.54778081       0.56653005
H       -2.93538963       4.97264576       1.94588589
H       -5.13598640       5.21466808       2.58728352
H       -4.10267837       6.12881872       3.72936912
H       -5.44794106       7.67691972       4.95383932
H       -7.53733981       8.25310736       6.13271134
H       -9.38945465       6.61940742       6.27154715
H       -7.05571012       3.78098951       4.02891612
Cl      -1.16355229      -9.61214699      -1.02332520
C       -1.31804603      -8.84925559       0.51141458
C       -0.47375675      -9.22508141       1.55721399
C       -0.60133693      -8.61418452       2.80642166
C       -1.56946895      -7.62038110       2.99244207
C       -2.41762103      -7.24410409       1.94649403
C       -2.28913355      -7.86444708       0.70115093
S       -1.74695413      -6.87215583       4.59806717
O       -2.78012186      -5.86281115       4.52417838
O       -1.81427589      -7.95717915       5.55731457
N       -0.24515089      -6.12336331       4.81856257
N        0.20024783      -5.07267576       3.95569981
C        1.41547946      -4.68215821       4.16654898
C        2.03163239      -3.59722860       3.37340422
C        1.21758134      -2.80618972       2.55108418
C        1.79132551      -1.79132551       1.79132551
C        3.16640193      -1.57415011       1.82786285
C        3.97740115      -2.36316070       2.65027333
C        3.41526937      -3.36323118       3.45181609
O        4.13736805      -4.15887778       4.30256360
C        5.44116825      -3.70403509       4.67239322
C        5.84678660      -4.38504241       5.95716848
C        7.05245642      -5.09498583       6.04775138
C        7.44282097      -5.67767088       7.25616324
C        6.63478013      -5.55573585       8.38648302
C        5.43609573      -4.85192454       8.30312846
Br       4.33957656      -4.67873358       9.83313336
C        5.04062690      -4.26648615       7.10087497
H        0.27836263      -9.99543304       1.40666508
H        0.04669616      -8.91693919       3.62467243
H       -3.17861273      -6.47994038       2.09274606
H       -2.94983640      -7.57978305      -0.11387383
H        0.33886900      -6.54965947       5.53951753
H        2.03392594      -5.16127408       4.94505127
H        0.14392073      -2.97585390       2.51334047
H        3.61838193      -0.79331952       1.22044460
H        5.04685431      -2.17385414       2.63321283
H        5.45962387      -2.62222565       4.85608848
H        6.14372250      -3.94973428       3.86740943
H        7.70135986      -5.19713392       5.18020633
H        8.38110550      -6.22381009       7.31824292
H        6.94891165      -6.00804934       9.32344823
H        4.10696190      -3.71054898       7.04810487
C       -0.00445707       0.01189536      -1.78238275
H       -0.66409135       0.67374010      -2.43557963
H        0.65740317      -0.63156657      -2.45157240
C       -0.90989263      -0.90692880      -0.91072765
C        0.90977584       0.90977584      -0.90977584
C       -0.00465871       1.77757030       0.00794375
H       -0.66225468       2.44313916      -0.64384735
H        0.64322798       2.43503045       0.67728295
C       -1.78241447       0.00034974      -0.00472694
H       -2.45427497      -0.65498947       0.64260836
H       -2.43311707       0.67328779      -0.65473579
C       -0.91132561       0.90220522       0.91563759
C       -0.01476271      -0.02253852       1.78660255
H       -0.67934791      -0.69751639       2.42135241
H        0.63392994       0.61504881       2.47327442
C        0.01484550      -1.77751727      -0.01636693
H        0.67870853      -2.42144646      -0.68295456
H       -0.62264859      -2.45592969       0.64226336
C        1.78714474       0.01002794       0.00389507
H        2.44202412       0.67113390       0.66197326
H        2.45385902      -0.65136977      -0.64189061
C        0.91606151      -0.90478549       0.90901405
