153
Properties=species:S:1:pos:R:3 pbc="F F F"
C        0.00000000       0.00000000       0.00000000
O        7.29171445       3.09078502      -1.62378914
C        6.93477082       2.07342522      -2.21934981
N        5.58938281       1.83170188      -2.40197914
N        5.13443302       0.77524794      -3.12027964
C        3.87289914       0.46742080      -3.08629134
C        2.77105699       1.12206999      -2.36064262
C        2.49466621       2.48373010      -2.51667020
C        1.41378730       3.04518621      -1.83297787
C        0.61495496       2.24389090      -1.01793307
F       -0.41936630       2.80763315      -0.37867451
C        0.88219415       0.88219415      -0.88219415
C        1.95951017       0.31255121      -1.55912916
C        7.88331670       1.04451389      -2.77808439
C        9.20845045       1.04273253      -2.06947007
O        9.39959547       0.40273215      -1.03134299
N       10.24051259       1.77030805      -2.61534655
N       10.11546374       2.53959782      -3.73317653
C       11.19392678       3.18447187      -4.04965886
C       11.27222127       4.08507856      -5.21529837
C       12.51683348       4.64516171      -5.53061093
C       12.63318676       5.50536888      -6.62312021
C       11.50852015       5.80306431      -7.38843250
F       11.64781906       6.63456826      -8.43157144
C       10.26821025       5.24854730      -7.07390367
Br       8.74426022       5.66472261      -8.11450858
C       10.14255655       4.38340290      -5.98490196
H        4.95988711       2.48206174      -1.94940540
H        3.57983626      -0.43981286      -3.64399013
H        3.09459593       3.10431936      -3.17872080
H        1.17872487       4.10104435      -1.93603048
H        2.17404180      -0.74855681      -1.45510703
H        7.99902247       1.20079008      -3.85502208
H        7.47155081       0.03868230      -2.64123162
H       11.10512249       1.76293942      -2.08704172
H       12.11629698       3.08404554      -3.45026410
H       13.39930482       4.41811031      -4.93756125
H       13.59109100       5.94665542      -6.88331390
H        9.17738044       3.95131504      -5.73205105
O       -4.97238458      -6.33619229      -0.69771174
C       -5.46052262      -5.21472013      -0.55230310
N       -4.75002180      -4.10738876      -0.96565328
N       -5.26537198      -2.85423849      -0.91035013
C       -4.49153121      -1.82935770      -1.10572237
C       -3.05123393      -1.79138048      -1.41115519
C       -2.51274898      -2.47992972      -2.50238782
C       -1.14522992      -2.37863146      -2.76809000
C       -0.33658000      -1.58353396      -1.95666497
F        0.97102272      -1.49952733      -2.23843674
C       -0.88219415      -0.88219415      -0.88219415
C       -2.24559501      -0.97786337      -0.60773216
C       -6.81221910      -4.95433528       0.06063941
C       -7.24500750      -6.05878391       0.98313837
O       -6.90648607      -6.09683057       2.16964602
N       -8.05950646      -7.04670421       0.48004347
N       -8.45199501      -7.11300421      -0.82323887
C       -9.17494359      -8.15181910      -1.10129483
C       -9.69271819      -8.42452506      -2.45535495
C      -10.55564387      -9.51534645      -2.62161580
C      -11.06466142      -9.81004238      -3.88697205
C      -10.70619636      -9.01859007      -4.97523053
F      -11.20791786      -9.32536057      -6.18068034
C       -9.84484302      -7.93409915      -4.81171905
Br      -9.35720682      -6.86912665      -6.29715793
C       -9.33347549      -7.62878893      -3.54859699
H       -3.81013962      -4.28545677      -1.29575786
H       -4.96137837      -0.83697959      -0.98565558
H       -3.14655695      -3.07314665      -3.15793249
H       -0.70186565      -2.90491075      -3.60902332
H       -2.67617224      -0.43488084       0.23046106
H       -7.54514753      -4.77720298      -0.73248412
H       -6.77880311      -4.04875303       0.67609141
H       -8.30067738      -7.78509966       1.13067341
H       -9.43958204      -8.88880049      -0.32222408
H      -10.83962715     -10.13830191      -1.77704733
H      -11.73689122     -10.65066801      -4.03350110
H       -8.65807527      -6.78717277      -3.41549850
O       -4.90958462       0.71346947       6.38323453
C       -3.71714657       0.98974988       6.52064940
N       -2.98785098       1.40781603       5.42739683
N       -1.69548810       1.80610306       5.52836944
C       -0.98955654       1.98443556       4.45261917
C       -1.38227996       1.82992803       3.04156160
C       -2.47927273       2.51078766       2.50500613
C       -2.78446235       2.35677487       1.15071416
C       -1.98745658       1.54242809       0.34689426
F       -2.29969410       1.41775061      -0.95050336
C       -0.88219415       0.88219415       0.88219415
C       -0.57005839       1.02815671       2.23297544
C       -2.97468216       0.90227286       7.82895996
C       -3.60827301      -0.07061132       8.78299135
O       -3.35509667      -1.27853371       8.75710766
N       -4.48652400       0.41648695       9.72315625
N       -4.85954833       1.72465325       9.80403651
C       -5.73640188       1.96409147      10.72756417
C       -6.28651973       3.31003605      10.97604243
C       -7.14440327       3.47756207      12.07064078
C       -7.68942372       4.73388449      12.33836764
C       -7.37857762       5.81019445      11.51124490
F       -7.91791423       7.00620590      11.78983863
C       -6.52701931       5.64422520      10.41941669
Br      -6.11648667       7.11031731       9.29668741
C       -5.97344185       4.39169444      10.14572513
H       -3.47166399       1.38068795       4.53900232
H        0.07173232       2.24856043       4.60718543
H       -3.08235344       3.17404239       3.12124025
H       -3.63240741       2.87369369       0.70969861
H        0.28948842       0.51368058       2.65639986
H       -2.88671037       1.90137613       8.26674812
H       -1.95687400       0.53382390       7.66076683
H       -4.91080286      -0.28008831      10.32438908
H       -6.11425643       1.15661261      11.37973758
H       -7.39235640       2.64203425      12.72058574
H       -8.35455236       4.88219536      13.18431261
H       -5.31228333       4.25502243       9.29344078
O        1.09059324      -3.94240280       6.97329258
C        0.65878160      -4.56595678       6.00280747
N        0.96155927      -4.13233313       4.72917143
N        0.58766525      -4.82032669       3.62196866
C        0.70502530      -4.27076674       2.45081924
C        1.22270753      -2.93957408       2.09148798
C        2.49646836      -2.51599637       2.48260178
C        2.95204351      -1.25782029       2.08208758
C        2.14328307      -0.44648763       1.28700822
F        2.60818857       0.75333531       0.91208809
C        0.88219415      -0.88219415       0.88219415
C        0.41771672      -2.13560932       1.27786450
C       -0.19947705      -5.80025978       6.10513224
C       -0.95189951      -5.86844856       7.40410399
O       -2.04030157      -5.30874712       7.56522506
N       -0.40609407      -6.59613756       8.43612371
N        0.80670507      -7.21374306       8.36778996
C        1.15873520      -7.80184035       9.46748196
C        2.44006904      -8.51766064       9.61486851
C        2.67143054      -9.21183000      10.80934558
C        3.87240520      -9.89879683      10.99047382
C        4.83313325      -9.88437520       9.98250851
F        5.97952869     -10.55095840      10.18347168
C        4.60538948      -9.19124553       8.79402620
Br       5.91940688      -9.17072781       7.43335671
C        3.40493385      -8.50411477       8.60181280
H        1.46467280      -3.25627417       4.67040729
H        0.32522907      -4.86089534       1.59788913
H        3.14361313      -3.16039315       3.07362981
H        3.93732787      -0.90458240       2.37388943
H       -0.56605725      -2.47963644       0.96701283
H        0.41865409      -6.68933946       5.94684108
H       -0.96266254      -5.79480362       5.31932365
H       -0.93429906      -6.58860945       9.30079324
H        0.50209900      -7.79283975      10.35566787
H        1.92657542      -9.22724148      11.60115949
H        4.06737921     -10.44425190      11.90942921
H        3.22328676      -7.95830054       7.67915924
