161
Properties=species:S:1:pos:R:3 pbc="F F F"
C        0.00000000       0.00000000       0.00000000
O        7.29171445       3.09078502      -1.62378914
C        6.93477082       2.07342522      -2.21934981
N        5.58938281       1.83170188      -2.40197914
N        5.13443302       0.77524794      -3.12027964
C        3.87289914       0.46742080      -3.08629134
C        2.77105699       1.12206999      -2.36064262
C        2.49466621       2.48373010      -2.51667020
C        1.41378730       3.04518621      -1.83297787
C        0.61495496       2.24389090      -1.01793307
F       -0.41936630       2.80763315      -0.37867451
C        0.88219415       0.88219415      -0.88219415
C        1.95951017       0.31255121      -1.55912916
C        7.88331670       1.04451389      -2.77808439
C        9.20845045       1.04273253      -2.06947007
O        9.39959547       0.40273215      -1.03134299
N       10.24051259       1.77030805      -2.61534655
N       10.11546374       2.53959782      -3.73317653
C       11.19392678       3.18447187      -4.04965886
C       11.27222127       4.08507856      -5.21529837
C       12.51683348       4.64516171      -5.53061093
C       12.63318676       5.50536888      -6.62312021
C       11.50852015       5.80306431      -7.38843250
F       11.64781906       6.63456826      -8.43157144
C       10.26821025       5.24854730      -7.07390367
C       10.14255655       4.38340290      -5.98490196
H        4.95988711       2.48206174      -1.94940540
H        3.57983626      -0.43981286      -3.64399013
H        3.09459593       3.10431936      -3.17872080
H        1.17872487       4.10104435      -1.93603048
H        2.17404180      -0.74855681      -1.45510703
H        7.99902247       1.20079008      -3.85502208
H        7.47155081       0.03868230      -2.64123162
H       11.10512249       1.76293942      -2.08704172
H       12.11629698       3.08404554      -3.45026410
H       13.39930482       4.41811031      -4.93756125
H       13.59109100       5.94665542      -6.88331390
H        9.17738044       3.95131504      -5.73205105
C        9.10814165       5.56535028      -7.86603796
C        8.13658421       5.83067277      -8.52945042
Br       6.56565798       6.25967681      -9.60213227
O       -0.64464668      -5.23376406      -6.12787788
C       -0.57439239      -5.67362579      -4.97952767
N       -1.00344764      -4.89256770      -3.92704849
N       -1.03044093      -5.34912836      -2.65039131
C       -1.23517878      -4.51881838      -1.67261412
C       -1.47250277      -3.06587812      -1.71538871
C       -2.50391454      -2.51164750      -2.47950447
C       -2.70799251      -1.13010428      -2.45385458
C       -1.89595258      -0.32223243      -1.65859391
F       -2.11815004       0.99943245      -1.64822377
C       -0.88219415      -0.88219415      -0.88219415
C       -0.66943585      -2.25975929      -0.90199541
C       -0.03965343      -7.03792176      -4.62833980
C        0.91063362      -7.56507217      -5.66621448
O        2.11252633      -7.28349392      -5.66270302
N        0.41479853      -8.40216974      -6.63879599
N       -0.90142180      -8.73725674      -6.74955955
C       -1.16598514      -9.49576217      -7.76631020
C       -2.52943044      -9.96344548      -8.07972228
C       -2.68678507     -10.86923984      -9.13658121
C       -3.96029391     -11.33330623      -9.46807571
C       -5.06520211     -10.88775240      -8.74706245
F       -6.27803295     -11.34786383      -9.08806198
C       -4.91037623      -9.98370497      -7.69658002
C       -3.63947016      -9.51668162      -7.35470963
H       -1.27952337      -3.94818460      -4.16364628
H       -1.18341650      -4.94546855      -0.65512849
H       -3.16127127      -3.14250990      -3.07385492
H       -3.50166123      -0.67446038      -3.03967810
H        0.12134758      -2.70171656      -0.30022303
H       -0.87434578      -7.72438298      -4.45610586
H        0.53454964      -6.98928746      -3.69672691
H        1.08624570      -8.70808650      -7.33326284
H       -0.36757236      -9.83091232      -8.45212193
H       -1.82917313     -11.22121694      -9.70458632
H       -4.10026610     -12.03771295     -10.28308127
H       -3.51279202      -8.80844847      -6.53950605
C       -6.05795473      -9.52257264      -6.95900252
C       -7.01905172      -9.13637431      -6.34128136
Br      -8.57306427      -8.51192429      -5.34247850
O       -1.37343604       3.45314432       7.17970825
C       -0.81068154       4.11232165       6.30454266
N       -1.03544551       3.80961295       4.97800537
N       -0.51320153       4.54871426       3.96804482
C       -0.57198278       4.10661313       2.74801537
C       -1.16109556       2.85828586       2.23438817
C       -2.49370716       2.51696665       2.48439271
C       -3.01174679       1.33904445       1.94116013
C       -2.20437857       0.52663812       1.14576224
F       -2.72924810      -0.59457036       0.63226361
C       -0.88219415       0.88219415       0.88219415
C       -0.35527391       2.05500274       1.42091389
C        0.13120072       5.25539247       6.58172323
C        0.77111889       5.15418078       7.93759115
O        1.79329616       4.49109477       8.13587200
N        0.19764154       5.84180702       8.98200172
N       -0.95149579       6.56578274       8.87095956
C       -1.34955793       7.09257876       9.98592082
C       -2.57763172       7.90281851      10.09214797
C       -2.85562662       8.51691497      11.32006453
C       -4.00913109       9.28883814      11.46370662
C       -4.87686059       9.43829564      10.38486073
F       -5.97951361      10.18365932      10.55078583
C       -4.60289535       8.82506717       9.16269870
C       -3.44895761       8.05391072       9.00799309
H       -1.59985366       2.98800044       4.80350015
H       -0.07374723       4.72773133       1.98253498
H       -3.13620245       3.16586011       3.07557352
H       -4.04366418       1.05047033       2.12166520
H        0.67606147       2.33608133       1.22057217
H       -0.39794857       6.20453370       6.45235236
H        0.95680790       5.24645912       5.86181351
H        0.64654426       5.71951233       9.88213556
H       -0.77527710       6.95580270      10.91952682
H       -2.18343273       8.40441635      12.16712731
H       -4.23895354       9.77408379      12.40802298
H       -3.23207698       7.56975974       8.05890981
C       -5.50756653       8.97898505       8.05297831
C       -6.26522864       9.10789127       7.12358748
Br      -7.49030420       9.31632173       5.62084113
O        6.56650610      -4.64915583       0.79062668
C        6.63595628      -3.46592062       1.12566895
N        5.49251036      -2.80610395       1.52444953
N        5.51553267      -1.53043834       1.98398959
C        4.40128341      -0.88201975       2.14330812
C        3.01825398      -1.32940582       1.90610979
C        2.50355357      -2.47959461       2.51191833
C        1.17308268      -2.83713031       2.28173838
C        0.37004686      -2.03962127       1.46711080
F       -0.90462237      -2.40302726       1.26853646
C        0.88219415      -0.88219415       0.88219415
C        2.20919628      -0.51750845       1.10448581
C        7.91094332      -2.66283385       1.13213781
C        8.93564388      -3.20754288       0.17746628
O        8.95168347      -2.89990678      -1.01791964
N        9.89304897      -4.06486773       0.66825050
N        9.93301052      -4.49432038       1.96090718
C       10.88474460      -5.33948058       2.20383234
C       11.09850974      -5.93997435       3.53411411
C       12.22327234      -6.75526599       3.71406778
C       12.45998887      -7.34565344       4.95603354
C       11.57234022      -7.12219298       6.00548376
F       11.82231499      -7.70362316       7.18802061
C       10.45056685      -6.31316285       5.82693151
C       10.20733195      -5.71467712       4.58885235
H        4.62964027      -3.32710300       1.43461098
H        4.49448379       0.17166388       2.46119363
H        3.11708862      -3.08488758       3.17565989
H        0.74943073      -3.72692574       2.73944324
H        2.61464588       0.38297012       0.64891627
H        8.29937537      -2.60203366       2.15342560
H        7.71216019      -1.63747647       0.80182807
H       10.54368481      -4.42920291      -0.01778409
H       11.58898274      -5.65007181       1.41155206
H       12.92049553      -6.93501991       2.89946095
H       13.32850804      -7.97873666       5.11381561
H        9.33215420      -5.08637815       4.44221419
C        9.53360777      -6.09111215       6.91480997
C        8.76565454      -5.90514469       7.82590817
Br       7.52393912      -5.60445103       9.29907691
