146
Properties=species:S:1:pos:R:3 pbc="F F F"
C        1.78823825       1.78823825      -1.78823825
C        1.27329455       2.92396760      -2.39521341
C        2.11063263       3.69918210      -3.19846593
C        3.44291624       3.32128421      -3.37222139
N        3.94943207       2.20524639      -2.79245410
C        3.11781529       1.47138525      -2.01089073
N        4.24850890       4.08919645      -4.24922142
N        5.58191457       3.63331370      -4.28087666
C        6.59876408       4.56435140      -4.26413469
O        6.45216774       5.77821311      -4.32912922
C        7.99959138       3.94215938      -4.12772660
O        8.15037206       2.72536216      -4.11109456
N        9.00847101       4.87565400      -4.04137919
N       10.34476541       4.43670554      -3.98497654
C       11.22741980       5.32688126      -4.64336027
C       12.57969870       4.98874264      -4.70804267
C       13.48555273       5.87838304      -5.28678356
C       13.01681821       7.08557915      -5.78361341
Br      14.19719733       8.32771137      -6.56688013
C       11.66295680       7.35629475      -5.67920383
N       10.76445422       6.51090699      -5.11518884
H        0.23321553       3.20811812      -2.26344527
H        1.71764705       4.57768470      -3.70034289
H        3.57260114       0.59229163      -1.56285687
H        4.19645641       5.08303716      -4.00899098
H        5.74235587       2.66155409      -4.00605859
H        8.85285848       5.86901923      -4.23031738
H       10.44613901       3.48576719      -4.34894269
H       12.93301610       4.05053372      -4.29180114
H       14.54078359       5.62484927      -5.33139283
H       11.24163575       8.28705204      -6.04867630
C       -1.78823825      -1.78823825      -1.78823825
C       -3.16370771      -1.61279192      -1.81597593
C       -3.93434662      -2.44365050      -2.63028354
C       -3.31016250      -3.42716672      -3.39909262
N       -1.96749796      -3.61275512      -3.36687948
C       -1.23887913      -2.78856202      -2.57265012
N       -4.12561743      -4.30008487      -4.16122447
N       -3.36307627      -5.19922975      -4.93379891
C       -3.74871636      -5.44373852      -6.23479530
O       -4.77050763      -5.02515009      -6.76385235
C       -2.74404808      -6.30293894      -7.02249034
O       -1.74507273      -6.76217844      -6.47957761
N       -3.09610615      -6.48844285      -8.34095521
N       -2.29762486      -7.31560069      -9.15322195
C       -3.06354687      -8.02229868     -10.11181578
C       -2.40412266      -8.91960317     -10.95275818
C       -3.11867925      -9.57751999     -11.95452009
C       -4.47446313      -9.31920147     -12.09234617
Br      -5.48562677     -10.17250465     -13.43365741
C       -5.06051130      -8.41188437     -11.22605971
N       -4.38589119      -7.75520686     -10.24945201
H       -3.64470392      -0.85146725      -1.20860775
H       -5.01427457      -2.33590454      -2.64549554
H       -0.16812299      -2.97193344      -2.58769322
H       -4.78007919      -3.76743584      -4.74096952
H       -2.40953873      -5.38547544      -4.61495439
H       -4.01788719      -6.23145953      -8.70284837
H       -1.72818101      -7.95721090      -8.59545699
H       -1.33749251      -9.09106252     -10.84679593
H       -2.60889444     -10.26987226     -12.61825899
H       -6.11759843      -8.16945975     -11.29030593
C       -1.78823825       1.78823825       1.78823825
C       -1.55183119       1.88957464       3.15106973
C       -2.38464326       2.70104340       3.92259400
C       -3.43115724       3.39356797       3.31169663
N       -3.67597599       3.28886992       1.98228664
C       -2.84885895       2.49913802       1.25209431
N       -4.30140446       4.15319799       4.13232432
N       -5.27021442       4.84671848       3.37917203
C       -5.55873047       6.15214958       3.71637012
O       -5.11975844       6.74790547       4.69184616
C       -6.49943641       6.85101832       2.71902263
O       -6.97726992       6.24067411       1.76888476
N       -6.73144020       8.17496490       3.01909911
N       -7.63195244       8.90965515       2.22483991
C       -8.34797779       9.87052727       2.97915627
C       -9.31351722      10.63727340       2.32569338
C       -9.98526885      11.64098980       3.02446068
C       -9.67232283      11.85501052       4.35867742
Br     -10.54173155      13.20279434       5.34726294
C       -8.69892574      11.05992875       4.93960089
N       -8.02779205      10.08316185       4.27959615
H       -0.74125544       1.34117997       3.62234351
H       -2.22865609       2.77268761       4.99433094
H       -3.08133324       2.45467528       0.19174113
H       -3.76777613       4.78719154       4.73351687
H       -5.48427617       4.47456107       2.45113132
H       -6.45029704       8.59178390       3.91011415
H       -8.27148029       8.29668822       1.71268038
H       -9.52814057      10.47280878       1.27440161
H      -10.73102535      12.24740035       2.51859999
H       -8.41193505      11.18554592       5.97988314
C        1.78823825      -1.78823825       1.78823825
C        3.16715756      -1.78554288       1.63977512
C        3.93657093      -2.61066165       2.46104807
C        3.30829599      -3.41555821       3.41256764
N        1.96001565      -3.43288509       3.55423181
C        1.23380763      -2.61738864       2.74889500
N        4.11060996      -4.29361371       4.18270309
N        3.35585667      -4.99748705       5.14276121
C        3.87262468      -5.14173083       6.41289466
O        4.99326588      -4.79877749       6.76746670
C        2.88557225      -5.77402665       7.40987845
O        1.78113254      -6.16147394       7.04422231
N        3.37803263      -5.85392443       8.69354715
N        2.60089865      -6.47787458       9.68767426
C        3.39771983      -7.16388965      10.63605184
C        2.75343208      -7.87130484      11.65174708
C        3.51051269      -8.49793873      12.64226791
C        4.89316163      -8.39877301      12.59407612
Br       5.96357142      -9.21744096      13.91077645
C        5.46304641      -7.67507294      11.56033603
N        4.74836334      -7.05188295      10.59030376
H        3.64980831      -1.16357906       0.89139155
H        5.01502752      -2.63885339       2.34179374
H        0.15975440      -2.66151717       2.90647808
H        4.88830235      -3.78627260       4.61390959
H        2.35494801      -5.09652963       4.95849092
H        4.36096785      -5.67634244       8.91488481
H        1.89760441      -7.10087861       9.28236587
H        1.66952722      -7.91773250      11.68809124
H        3.01429567      -9.04198858      13.44074144
H        6.54021691      -7.56215248      11.47499472
C       -0.00445707       0.01189536      -1.78238275
H       -0.66409135       0.67374010      -2.43557963
H        0.65740317      -0.63156657      -2.45157240
C       -0.90989263      -0.90692880      -0.91072765
C        0.90977584       0.90977584      -0.90977584
C       -0.00465871       1.77757030       0.00794375
H       -0.66225468       2.44313916      -0.64384735
H        0.64322798       2.43503045       0.67728295
C       -1.78241447       0.00034974      -0.00472694
H       -2.45427497      -0.65498947       0.64260836
H       -2.43311707       0.67328779      -0.65473579
C       -0.91132561       0.90220522       0.91563759
C       -0.01476271      -0.02253852       1.78660255
H       -0.67934791      -0.69751639       2.42135241
H        0.63392994       0.61504881       2.47327442
C        0.01484550      -1.77751727      -0.01636693
H        0.67870853      -2.42144646      -0.68295456
H       -0.62264859      -2.45592969       0.64226336
C        1.78714474       0.01002794       0.00389507
H        2.44202412       0.67113390       0.66197326
H        2.45385902      -0.65136977      -0.64189061
C        0.91606151      -0.90478549       0.90901405
