154
Properties=species:S:1:pos:R:3 pbc="F F F"
C        1.78823825       1.78823825      -1.78823825
C        1.27329455       2.92396760      -2.39521341
C        2.11063263       3.69918210      -3.19846593
C        3.44291624       3.32128421      -3.37222139
N        3.94943207       2.20524639      -2.79245410
C        3.11781529       1.47138525      -2.01089073
N        4.24850890       4.08919645      -4.24922142
N        5.58191457       3.63331370      -4.28087666
C        6.59876408       4.56435140      -4.26413469
O        6.45216774       5.77821311      -4.32912922
C        7.99959138       3.94215938      -4.12772660
O        8.15037206       2.72536216      -4.11109456
N        9.00847101       4.87565400      -4.04137919
N       10.34476541       4.43670554      -3.98497654
C       11.22741980       5.32688126      -4.64336027
C       12.57969870       4.98874264      -4.70804267
C       13.48555273       5.87838304      -5.28678356
C       13.01681821       7.08557915      -5.78361341
C       11.66295680       7.35629475      -5.67920383
N       10.76445422       6.51090699      -5.11518884
H        0.23321553       3.20811812      -2.26344527
H        1.71764705       4.57768470      -3.70034289
H        3.57260114       0.59229163      -1.56285687
H        4.19645641       5.08303716      -4.00899098
H        5.74235587       2.66155409      -4.00605859
H        8.85285848       5.86901923      -4.23031738
H       10.44613901       3.48576719      -4.34894269
H       12.93301610       4.05053372      -4.29180114
H       14.54078359       5.62484927      -5.33139283
H       11.24163575       8.28705204      -6.04867630
C       13.91898856       8.03494773      -6.38226853
C       14.67455623       8.83004392      -6.88364220
Br      15.89624524      10.11564720      -7.69432101
C       -1.78823825      -1.78823825      -1.78823825
C       -3.15993439      -1.59065605      -1.84188512
C       -3.93086244      -2.42222911      -2.65518910
C       -3.31065704      -3.42862331      -3.39714149
N       -1.97200025      -3.63572970      -3.33940261
C       -1.24286169      -2.81046451      -2.54676508
N       -4.12795203      -4.30063289      -4.15834185
N       -3.36795320      -5.22502026      -4.90313147
C       -3.73615813      -5.48489271      -6.20619934
O       -4.74194818      -5.05845218      -6.75910971
C       -2.73318123      -6.37358668      -6.96270946
O       -1.75110953      -6.84005941      -6.39565984
N       -3.06653790      -6.57531596      -8.28365034
N       -2.26875008      -7.42899246      -9.06870496
C       -3.03050802      -8.13893247     -10.02822084
C       -2.37244113      -9.06092662     -10.84311625
C       -3.08132032      -9.72366741     -11.84573160
C       -4.43013614      -9.44540310     -12.01047152
C       -5.01509690      -8.51418300     -11.16917547
N       -4.34574975      -7.85244471     -10.19235560
H       -3.63805297      -0.81145269      -1.25527326
H       -5.00843825      -2.29698532      -2.69025107
H       -0.17522308      -3.01166840      -2.54085817
H       -4.76376964      -3.76706031      -4.75765460
H       -2.42304683      -5.42157759      -4.56534413
H       -3.97780341      -6.30928413      -8.66510756
H       -1.71938922      -8.07046424      -8.49099542
H       -1.31072045      -9.24812794     -10.71650258
H       -2.57233815     -10.43533517     -12.48935237
H       -6.06677602      -8.25549471     -11.25509338
C       -5.19679923     -10.10184528     -13.03756031
C       -5.83887957     -10.65161561     -13.89774716
Br      -6.87706917     -11.54054773     -15.28859656
C       -1.78823825       1.78823825       1.78823825
C       -1.22550284       2.63956881       2.72740391
C       -2.06652844       3.42396731       3.51778491
C       -3.44921727       3.34000469       3.34719988
N       -4.00654582       2.50043583       2.44015091
C       -3.16829498       1.75279192       1.67900437
N       -4.27841861       4.09629533       4.21221282
N       -5.64375737       3.96467911       3.88766845
C       -6.43673281       5.09258828       3.89792909
O       -6.08524297       6.20518764       4.26907946
C       -7.85847597       4.84923897       3.36176242
O       -8.22573315       3.72577905       3.03531658
N       -8.62722924       5.99063938       3.30763559
N       -9.97172574       5.89229998       2.90242177
C      -10.80092288       6.82400659       3.57273187
C      -12.16996035       6.80300368       3.30351998
C      -13.00291891       7.75445356       3.89334686
C      -12.44538726       8.70529640       4.73532711
C      -11.07820665       8.66898686       4.95126187
N      -10.24742152       7.75873768       4.38439085
H       -0.14900235       2.69402086       2.86175571
H       -1.64384709       4.07767648       4.27415108
H       -3.66257848       1.10280961       0.96236156
H       -3.98741734       5.07779183       4.22327537
H       -5.91456232       3.12558011       3.36982612
H       -8.33706737       6.86751812       3.74760961
H      -10.33051809       4.94010369       3.01022711
H      -12.58579757       6.06710309       2.62245031
H      -14.06793766       7.74901810       3.68006993
H      -10.58798899       9.39072251       5.59865261
C      -13.26829992       9.70919007       5.35871484
C      -13.95748927      10.54995101       5.88080206
Br     -15.07185016      11.90939035       6.72497294
C        1.78823825      -1.78823825       1.78823825
C        3.17079739      -1.71366552       1.70801265
C        3.94051943      -2.54120446       2.52655676
C        3.30868355      -3.42043529       3.40730301
N        1.95773022      -3.50783654       3.48156580
C        1.23084032      -2.68865721       2.68059373
N        4.11622714      -4.29673458       4.17396504
N        3.35283988      -5.08151902       5.06174602
C        3.81601285      -5.26364742       6.34758990
O        4.90060575      -4.88642157       6.77248275
C        2.81561511      -5.98971492       7.26414733
O        1.74989220      -6.41002845       6.82690813
N        3.25074018      -6.10944953       8.56531450
N        2.45950019      -6.81721785       9.48972945
C        3.24377692      -7.51093701      10.44294740
C        2.58816841      -8.29681540      11.39150019
C        3.32790395      -8.93522298      12.38759240
C        4.70474636      -8.76915576      12.41210865
C        5.28616842      -7.96962818      11.44265878
N        4.58794219      -7.33367763      10.46893023
H        3.65682086      -1.03374961       1.01420845
H        5.02345898      -2.51295644       2.45925923
H        0.15405296      -2.79073610       2.78296058
H        4.84699398      -3.77532992       4.66616064
H        2.36773921      -5.21815843       4.82407092
H        4.21231277      -5.89711551       8.84276682
H        1.80743120      -7.45180662       9.02161106
H        1.50734385      -8.39569112      11.37231600
H        2.82217017      -9.54050185      13.13435367
H        6.35930126      -7.80232048      11.41574236
C        5.50459338      -9.40456353      13.42704792
C        6.17446526      -9.93671753      14.27705955
Br       7.25759144     -10.79716555      15.65145647
C       -0.00445707       0.01189536      -1.78238275
H       -0.66409135       0.67374010      -2.43557963
H        0.65740317      -0.63156657      -2.45157240
C       -0.90989263      -0.90692880      -0.91072765
C        0.90977584       0.90977584      -0.90977584
C       -0.00465871       1.77757030       0.00794375
H       -0.66225468       2.44313916      -0.64384735
H        0.64322798       2.43503045       0.67728295
C       -1.78241447       0.00034974      -0.00472694
H       -2.45427497      -0.65498947       0.64260836
H       -2.43311707       0.67328779      -0.65473579
C       -0.91132561       0.90220522       0.91563759
C       -0.01476271      -0.02253852       1.78660255
H       -0.67934791      -0.69751639       2.42135241
H        0.63392994       0.61504881       2.47327442
C        0.01484550      -1.77751727      -0.01636693
H        0.67870853      -2.42144646      -0.68295456
H       -0.62264859      -2.45592969       0.64226336
C        1.78714474       0.01002794       0.00389507
H        2.44202412       0.67113390       0.66197326
H        2.45385902      -0.65136977      -0.64189061
C        0.91606151      -0.90478549       0.90901405
