154
Properties=species:S:1:pos:R:3 pbc="F F F"
C        1.91578425       8.93123959      -4.10818513
C        3.34601584       8.41854257      -4.18465729
C        4.00417516       8.39903791      -2.80612733
N        4.08070635       7.34518564      -2.04121866
N        3.58698537       6.13870372      -2.42924334
C        3.62814688       5.06762135      -1.54598223
O        4.01602041       5.10129780      -0.38377630
C        3.10136861       3.79357863      -2.10088063
C        3.39534185       3.39651538      -3.41313303
C        2.87392938       2.20119139      -3.91271626
C        2.06601999       1.40092479      -3.10353415
C        1.79180187       1.79180187      -1.79180187
C        2.31171391       2.97975757      -1.28165986
C        4.57480580       9.62989707      -2.25033808
C        5.20049154       9.77581542      -1.01918382
C        5.61371113      11.11594615      -0.75695357
C        5.29276576      11.93944586      -1.80271269
S        4.54199386      11.13097565      -3.08344139
H        1.34972632       8.42648216      -3.31921037
H        1.40263940       8.76988870      -5.06135327
H        1.88624609      10.00509822      -3.89902503
H        3.93261707       9.03260093      -4.87574302
H        3.34691423       7.42010020      -4.62836052
H        3.11109039       6.03869718      -3.31457556
H        4.05354000       3.98857210      -4.04459529
H        3.10684967       1.88217800      -4.92683403
H        1.66171800       0.47084949      -3.49835318
H        2.10521623       3.28266201      -0.25754998
H        5.34116686       8.94860272      -0.33012175
H        6.10627305      11.43901937       0.15198310
C        5.56448016      13.35350474      -1.81716086
C        5.79204097      14.53777906      -1.82926121
Br       6.15998755      16.45265047      -1.84882645
C       -8.52238690      -1.34654786      -5.08627420
C       -7.71051530      -2.36024541      -5.87845499
C       -6.72242628      -1.66986654      -6.81704758
N       -5.46477986      -1.46265973      -6.53967106
N       -4.90995520      -1.87622646      -5.36875077
C       -3.58505059      -1.56399698      -5.09270289
O       -2.84425357      -0.87358855      -5.78325238
C       -3.08107376      -2.10936412      -3.80539000
C       -3.40607221      -3.40864761      -3.39027044
C       -2.93035624      -3.88912917      -2.16835162
C       -2.12762179      -3.07778387      -1.36507326
C       -1.79180187      -1.79180187      -1.79180187
C       -2.25650068      -1.30473963      -3.01189102
C       -7.17860085      -1.16192127      -8.11451883
C       -6.40958714      -0.51376770      -9.07213593
C       -7.16256884      -0.10951291     -10.21452909
C       -8.47677084      -0.47176129     -10.08639218
S       -8.80382040      -1.30194799      -8.65064251
H       -7.88033585      -0.58933912      -4.62574387
H       -9.08979195      -1.84803349      -4.29605592
H       -9.24223872      -0.82413398      -5.72399664
H       -8.37595059      -3.01837758      -6.44663285
H       -7.18743399      -3.02297829      -5.18496267
H       -5.47509179      -2.32639529      -4.66287605
H       -3.99863272      -4.06754717      -4.02052750
H       -3.17032106      -4.90030224      -1.84523839
H       -1.76038498      -3.45710923      -0.41342646
H       -1.99013240      -0.30565637      -3.34963945
H       -5.34752310      -0.32746477      -8.94490347
H       -6.75059358       0.42131663     -11.06403236
C       -9.48493900      -0.17836317     -11.07184360
C      -10.32927983       0.06735776     -11.89715917
Br     -11.69450755       0.46466771     -13.23162463
C       -7.35158206       0.85553401       6.74809289
C       -6.68831585       2.18470508       7.07619477
C       -5.38396941       1.98049153       7.84487946
N       -4.20011563       1.96976701       7.29722801
N       -4.02409984       2.16768452       5.96314807
C       -2.74910326       2.07198086       5.42066634
O       -1.72876876       1.75241286       6.01991288
C       -2.67926878       2.35345506       3.96310404
C       -3.40997586       3.40437639       3.39063801
C       -3.33649055       3.63593074       2.01541574
C       -2.53161923       2.82493073       1.21392897
C       -1.79180187       1.79180187       1.79180187
C       -1.85354956       1.55581443       3.16376736
C       -5.41639946       1.74674861       9.29189288
C       -4.32586478       1.54253951      10.12708649
C       -4.69708859       1.30543853      11.48408373
C       -6.05769783       1.34499567      11.63223080
S       -6.87657582       1.68648350      10.19335158
H       -6.64234721       0.15223289       6.30083875
H       -8.17939436       1.00630554       6.04818147
H       -7.76390112       0.38197715       7.64449107
H       -7.37173241       2.81785883       7.65136977
H       -6.50967050       2.73584297       6.14986147
H       -4.81912718       2.29252728       5.35270866
H       -4.01214750       4.06936357       4.00519632
H       -3.89294278       4.45645475       1.56646416
H       -2.47879742       3.00943244       0.14269080
H       -1.27235168       0.75591617       3.61716037
H       -3.30128037       1.55074093       9.76787003
H       -3.99612631       1.11067813      12.28650488
C       -6.73070205       1.11932164      12.88512208
C       -7.29434309       0.93031963      13.93441852
Br      -8.20570297       0.62471938      15.63104212
C        4.62952380      -8.73859965       1.58708551
C        5.53494602      -7.91959717       2.49467252
C        6.48525736      -7.03956198       1.68452106
N        6.27280820      -5.78157031       1.41273215
N        5.16790345      -5.12674098       1.86028800
C        4.95402791      -3.80831385       1.47940871
O        5.64208140      -3.15830063       0.70071247
C        3.73871820      -3.18838101       2.06872867
C        3.39050340      -3.40487725       3.40960960
C        2.23432763      -2.82137305       3.93213636
C        1.43048667      -2.01913283       3.12085943
C        1.79180187      -1.79180187       1.79180187
C        2.94640175      -2.36461853       1.26211107
C        7.71608053      -7.61024970       1.12871072
C        8.67462724      -6.94705129       0.37381225
C        9.73953688      -7.79679035      -0.04971638
C        9.55480520      -9.07496891       0.40515020
S        8.15920164      -9.25543067       1.34177860
H        4.16070439      -8.11554157       0.81917289
H        3.84048403      -9.22101229       2.17238505
H        5.18609660      -9.52951219       1.07476055
H        6.10303902      -8.57910259       3.15881940
H        4.91992410      -7.31236450       3.16308635
H        4.45963904      -5.61558459       2.38913950
H        4.02495898      -3.99582791       4.06592049
H        1.96408146      -2.97694518       4.97483506
H        0.53017680      -1.56762082       3.53312305
H        3.23364163      -2.18296590       0.22882069
H        8.60104881      -5.89241114       0.12643139
H       10.57613166      -7.47487196      -0.65769430
C       10.45497655     -10.16174408       0.11842514
C       11.20887006     -11.07191829      -0.12170711
Br      12.42785210     -12.54359300      -0.50998063
C       -0.00445707       0.01189536      -1.78238275
H       -0.66409135       0.67374010      -2.43557963
H        0.65740317      -0.63156657      -2.45157240
C       -0.90989263      -0.90692880      -0.91072765
C        0.90977584       0.90977584      -0.90977584
C       -0.00465871       1.77757030       0.00794375
H       -0.66225468       2.44313916      -0.64384735
H        0.64322798       2.43503045       0.67728295
C       -1.78241447       0.00034974      -0.00472694
H       -2.45427497      -0.65498947       0.64260836
H       -2.43311707       0.67328779      -0.65473579
C       -0.91132561       0.90220522       0.91563759
C       -0.01476271      -0.02253852       1.78660255
H       -0.67934791      -0.69751639       2.42135241
H        0.63392994       0.61504881       2.47327442
C        0.01484550      -1.77751727      -0.01636693
H        0.67870853      -2.42144646      -0.68295456
H       -0.62264859      -2.45592969       0.64226336
C        1.78714474       0.01002794       0.00389507
H        2.44202412       0.67113390       0.66197326
H        2.45385902      -0.65136977      -0.64189061
C        0.91606151      -0.90478549       0.90901405
