125
Properties=species:S:1:pos:R:3 pbc="F F F"
C        0.00000000       0.00000000       0.00000000
C        1.00588023       8.02133556      -3.19828110
C        2.43611181       7.50863855      -3.27475326
C        3.09427114       7.48913388      -1.89622331
N        3.17080233       6.43528161      -1.13131463
N        2.67708135       5.22879970      -1.51933932
C        2.71824285       4.15771733      -0.63607821
O        3.10611639       4.19139377       0.52612773
C        2.19146459       2.88367460      -1.19097661
C        2.48543783       2.48661135      -2.50322900
C        1.96402535       1.29128737      -3.00281223
C        1.15611597       0.49102076      -2.19363012
C        0.88189784       0.88189784      -0.88189784
C        1.40180989       2.06985355      -0.37175583
C        3.66490178       8.71999304      -1.34043406
C        4.29058751       8.86591139      -0.10927980
C        4.70380710      10.20604212       0.15295045
C        4.38286174      11.02954183      -0.89280867
Br       4.73621893      12.86848700      -0.91159812
S        3.63208983      10.22107163      -2.17353736
H        0.43982229       7.51657813      -2.40930635
H        0.49273537       7.85998468      -4.15144925
H        0.97634207       9.09519419      -2.98912101
H        3.02271304       8.12269691      -3.96583899
H        2.43701020       6.51019618      -3.71845650
H        2.20118637       5.12879315      -2.40467153
H        3.14363598       3.07866808      -3.13469126
H        2.19694564       0.97227398      -4.01693000
H        0.75181397      -0.43905454      -2.58844916
H        1.19531221       2.37275798       0.65235404
H        4.43126284       8.03869870       0.57978227
H        5.19636902      10.52911535       1.06188712
C       -7.73350326      -0.55979617      -3.93219746
C       -6.91608386      -1.51776738      -4.78565239
C       -5.98467108      -0.76264661      -5.73231063
N       -4.72581366      -0.52145972      -5.49012520
N       -4.11731618      -0.95449823      -4.35340595
C       -2.79483462      -0.60603993      -4.11116384
O       -2.10185106       0.13226812      -4.80179950
C       -2.22869585      -1.17637500      -2.86104495
C       -2.49553566      -2.49926877      -2.48047376
C       -1.96205518      -3.00358491      -1.29248487
C       -1.15958974      -2.19226776      -0.48890936
C       -0.88189784      -0.88189784      -0.88189784
C       -1.40453059      -0.37068881      -2.06819986
C       -6.50216341      -0.22769751      -6.99546796
C       -5.78881899       0.47830681      -7.95526652
C       -6.59394645       0.89423815      -9.05719047
C       -7.89008877       0.48267947      -8.89780294
Br      -9.25673763       0.86128962     -10.12085605
S       -8.13936182      -0.40584480      -7.48149221
H       -7.10157844       0.20334646      -3.46747480
H       -8.25616339      -1.10673527      -3.14127063
H       -8.49203642      -0.04156491      -4.52705594
H       -7.57839997      -2.17915873      -5.35369025
H       -6.34747489      -2.18482387      -4.13336411
H       -4.64234239      -1.44728237      -3.64502629
H       -3.08718244      -3.15683159      -3.11298128
H       -2.15677125      -4.03268587      -0.99669250
H       -0.74719026      -2.59026252       0.43624418
H       -1.18354364       0.64773857      -2.37991107
H       -4.72981108       0.69686895      -7.85723714
H       -6.22956718       1.46709380      -9.90112387
C       -6.62391155      -0.02918417       5.63076951
C       -5.93057026       1.26724518       6.02168818
C       -4.65847261       0.99761566       6.82354006
N       -3.45859186       0.96598435       6.31282237
N       -3.23388962       1.19946225       4.99186849
C       -1.94575900       1.07985730       4.48642210
O       -0.95554419       0.70934012       5.10649812
C       -1.82058566       1.40404037       3.04148978
C       -2.49962633       2.49507795       2.48057391
C       -2.37499143       2.76671908       1.11641445
C       -1.57041865       1.95562014       0.31472806
C       -0.88189784       0.88189784       0.88189784
C       -0.99484005       0.60555322       2.24302600
C       -4.74445992       0.72024592       8.26062304
C       -3.68809100       0.45540399       9.12228371
C       -4.10975677       0.18832156      10.45882045
C       -5.47252944       0.26681275      10.56587005
Br      -6.40816469      -0.04890682      12.15704619
S       -6.23392085       0.67882885       9.11394913
H       -5.92288186      -0.74061990       5.18344482
H       -7.42380950       0.16966278       4.91069701
H       -7.07921889      -0.51687992       6.49831829
H       -6.61208021       1.90380743       6.59536130
H       -5.70533845       1.84085644       5.11946799
H       -4.00470485       1.36858025       4.36136595
H       -3.10024558       3.15961832       3.09713141
H       -2.89105455       3.61817602       0.67691906
H       -1.47762097       2.17148514      -0.74789753
H       -0.45355815      -0.22622871       2.68838671
H       -2.65276816       0.44193325       8.79547786
H       -3.44123018      -0.05358914      11.27595620
C        6.49087371      -5.78349302      -0.04886983
C        6.60982329      -5.24192581       1.36775453
C        7.24606192      -3.85306410       1.38050230
N        6.57467985      -2.73564557       1.42707315
N        5.21629056      -2.71613088       1.49279892
C        4.54839451      -1.49867355       1.46497033
O        5.05994985      -0.39476189       1.31667069
C        3.07132601      -1.60567687       1.58911292
C        2.48150580      -2.50137574       2.49239664
C        1.09042236      -2.59106172       2.57664088
C        0.28950741      -1.78517626       1.76608319
C        0.88189784      -0.88189784       0.88189784
C        2.26890384      -0.78043847       0.79407695
C        8.70381696      -3.71539833       1.30611358
C        9.42946347      -2.53135803       1.30495720
C       10.83599374      -2.73729947       1.18360557
C       11.12898778      -4.07242327       1.10380118
Br      12.86617235      -4.74344451       0.90668719
S        9.76268200      -5.06303576       1.20098106
H        6.04011687      -5.04886249      -0.72327259
H        5.87527293      -6.68837117      -0.05947480
H        7.46998267      -6.04973304      -0.45905844
H        7.19119989      -5.93054905       1.98950001
H        5.61923199      -5.21831565       1.82811523
H        4.68812078      -3.57682469       1.46970558
H        3.08967994      -3.10926046       3.15805492
H        0.62638896      -3.27668813       3.28307253
H       -0.79400803      -1.85986535       1.83535128
H        2.73254240      -0.07218024       0.11099351
H        8.96014807      -1.55479238       1.37523882
H       11.57136330      -1.94280399       1.14942996
