145
Properties=species:S:1:pos:R:3 pbc="F F F"
C        0.00000000       0.00000000       0.00000000
C        6.19143983       3.79423697       0.54647981
C        7.49249917       3.46627595      -0.15902615
C        7.71153600       3.99237537      -1.58563650
N        6.84955762       3.94684419      -2.56386809
N        5.54456078       3.63276985      -2.37173890
C        4.76951001       3.30535721      -3.48456552
O        5.21488567       2.90820280      -4.55795221
C        3.28585135       3.55665910      -3.27660069
C        2.50287062       2.54108662      -2.47157481
C        1.14139206       2.35568891      -2.77113450
C        0.33634563       1.52394442      -1.98721860
C        0.88115129       0.88115129      -0.88115129
C        2.22707550       1.04330627      -0.56982348
C        3.03302223       1.86260890      -1.36632812
C        9.04539778       4.47030187      -1.97649421
C        9.53827563       4.59277434      -3.26981159
C       10.85938336       5.12851053      -3.31800426
C       11.32051137       5.40394289      -2.05841013
S       10.20972979       5.02280707      -0.84207427
H        6.31578959       3.69320669       1.62991527
H        5.40869310       3.08617330       0.26605539
H        5.85036061       4.81096466       0.33321542
H        8.28364738       3.83446530       0.49727317
H        7.62213068       2.37785869      -0.19705782
H        5.08009199       4.07333603      -1.58830787
H        2.84524485       3.64429141      -4.27955852
H        3.16121880       4.54043855      -2.80478324
H        0.69068422       2.86861980      -3.61947128
H       -0.71216798       1.39619711      -2.24232068
H        2.66033153       0.54234195       0.29269965
H        4.07911884       1.94671471      -1.09641992
H        8.96493167       4.30679134      -4.14641850
H       11.41827708       5.30224080      -4.22915793
C       12.61781449       5.96869746      -1.79072207
C       13.70430585       6.44167941      -1.56653333
Br      15.46107049       7.20645122      -1.20403909
C       -1.47818700      -0.88575745      -7.07525254
C       -1.11147954      -2.09805519      -7.90826654
C       -2.06701668      -3.30086189      -7.92166930
N       -2.63508563      -3.84453858      -6.88064568
N       -2.63386034      -3.25622649      -5.65898270
C       -2.98161127      -4.02786233      -4.54995914
O       -2.92516371      -5.25374029      -4.50213668
C       -3.52137873      -3.20502993      -3.39270248
C       -2.52454962      -2.46498711      -2.52599532
C       -2.84158140      -2.25449035      -1.17214372
C       -2.02110732      -1.47526251      -0.35113882
C       -0.88115129      -0.88115129      -0.88115129
C       -0.54323640      -1.08149922      -2.21546964
C       -1.35733589      -1.87552644      -3.02909692
C       -2.28175076      -4.03179394      -9.17864915
C       -2.75609199      -5.33074413      -9.31402545
C       -2.89322412      -5.73871677     -10.67395726
C       -2.52723762      -4.73046164     -11.52516514
S       -2.01997002      -3.33073328     -10.72390784
H       -0.93807130      -0.00423609      -7.43677362
H       -1.17112310      -1.02163400      -6.03605391
H       -2.54954157      -0.66981925      -7.10874903
H       -0.97135671      -1.72474537      -8.92473743
H       -0.13040932      -2.47360077      -7.59303710
H       -2.84550692      -2.26734125      -5.62888772
H       -4.10349695      -3.89720781      -2.76839001
H       -4.24154343      -2.47650016      -3.78839701
H       -3.74230924      -2.69216030      -0.74430576
H       -2.28793956      -1.33066456       0.69225431
H        0.34771164      -0.62136791      -2.63631756
H       -1.04691531      -2.01782920      -4.05750897
H       -2.99526626      -5.96044748      -8.46242777
H       -3.24782311      -6.71195040     -10.98990230
C       -2.57463573      -4.84258782     -12.96001047
C       -2.61433166      -4.93649349     -14.16169344
Br      -2.67851661      -5.08833103     -16.10471317
C       -4.29047343       5.84284477      -0.69412121
C       -5.79795496       5.85454660      -0.53470029
C       -6.39006906       6.02720959       0.87226922
N       -6.00453196       5.40407780       1.95166014
N       -4.85629593       4.68506097       2.00771263
C       -4.67306515       3.80872565       3.07764194
O       -5.57727730       3.33992029       3.76384309
C       -3.21081714       3.52879762       3.37949638
C       -2.48100145       2.54507912       2.48945148
C       -1.43354640       1.78917663       3.04549244
C       -0.64350226       0.95483663       2.24916975
C       -0.88115129       0.88115129       0.88115129
C       -1.91650760       1.61367101       0.31002663
C       -2.71537384       2.43397385       1.11261155
C       -7.59539452       6.85008980       1.04670953
C       -8.48721731       6.80251620       2.11112805
C       -9.53705259       7.76248077       2.00636479
C       -9.40002141       8.51335523       0.86948775
S       -8.05674503       8.07845596      -0.06058986
H       -4.02008357       6.08616587      -1.72716842
H       -3.88789003       4.84550495      -0.50458398
H       -3.79913347       6.56114948      -0.03217310
H       -6.15642363       6.65252337      -1.18810750
H       -6.21497379       4.92664280      -0.94456940
H       -4.03271945       5.10862423       1.60039221
H       -3.17361177       3.17588681       4.41959619
H       -2.66272367       4.48027168       3.36344525
H       -1.21683628       1.85102535       4.11091367
H        0.15796623       0.37959715       2.70471889
H       -2.10922105       1.55963387      -0.75888109
H       -3.52065798       2.97345877       0.62813674
H       -8.38332309       6.10125892       2.93355949
H      -10.33021440       7.88623763       2.73322378
C      -10.30223457       9.57360120       0.50139825
C      -11.05783810      10.46155721       0.19312329
Br     -12.27958509      11.89730696      -0.30533125
C        0.13153271      -6.85555800       2.45210628
C        1.14400042      -7.91357203       2.06022881
C        2.47046245      -7.98748785       2.83159756
N        3.23532583      -6.97856947       3.14637459
N        2.82749507      -5.69057247       3.03100200
C        3.78940351      -4.68174318       3.08828606
O        4.98541300      -4.83824783       2.85737986
C        3.22975096      -3.34512603       3.54423415
C        2.46612130      -2.51646327       2.53294749
C        2.49653928      -1.11585320       2.65582299
C        1.71646155      -0.30143860       1.82960850
C        0.88115129      -0.88115129       0.88115129
C        0.84015925      -2.26390993       0.73613607
C        1.63470024      -3.07434641       1.55291259
C        3.04693290      -9.30348173       3.14177922
C        4.37391583      -9.57795886       3.44898687
C        4.60815774     -10.95373325       3.74400717
C        3.44736683     -11.67527594       3.66022162
S        2.10791520     -10.73825530       3.22844062
H       -0.86598506      -7.14245805       2.10260802
H        0.35789197      -5.90338256       1.96753648
H        0.08670397      -6.70695922       3.53444666
H        0.61731328      -8.86697843       2.13654780
H        1.39789732      -7.79981637       0.99933350
H        1.89861382      -5.47441062       3.36871145
H        4.08489426      -2.76535515       3.91884537
H        2.57812046      -3.51702451       4.41129562
H        3.12674270      -0.64388161       3.40815099
H        1.76072727       0.77826425       1.94388679
H        0.19051522      -2.72412443      -0.00466582
H        1.58329292      -4.14501415       1.39394641
H        5.14445117      -8.81304796       3.46064238
H        5.57285271     -11.36920998       4.00761313
C        3.36779633     -13.08940749       3.92003020
C        3.30115603     -14.27374266       4.13761989
Br       3.19340432     -16.18871247       4.48944402
