137
Properties=species:S:1:pos:R:3 pbc="F F F"
C        0.00000000       0.00000000       0.00000000
C        6.19143983       3.79423697       0.54647981
C        7.49249917       3.46627595      -0.15902615
C        7.71153600       3.99237537      -1.58563650
N        6.84955762       3.94684419      -2.56386809
N        5.54456078       3.63276985      -2.37173890
C        4.76951001       3.30535721      -3.48456552
O        5.21488567       2.90820280      -4.55795221
C        3.28585135       3.55665910      -3.27660069
C        2.50287062       2.54108662      -2.47157481
C        1.14139206       2.35568891      -2.77113450
C        0.33634563       1.52394442      -1.98721860
C        0.88115129       0.88115129      -0.88115129
C        2.22707550       1.04330627      -0.56982348
C        3.03302223       1.86260890      -1.36632812
C        9.04539778       4.47030187      -1.97649421
C        9.53827563       4.59277434      -3.26981159
C       10.85938336       5.12851053      -3.31800426
C       11.32051137       5.40394289      -2.05841013
Br      13.00745561       6.13831981      -1.71032276
S       10.20972979       5.02280707      -0.84207427
H        6.31578959       3.69320669       1.62991527
H        5.40869310       3.08617330       0.26605539
H        5.85036061       4.81096466       0.33321542
H        8.28364738       3.83446530       0.49727317
H        7.62213068       2.37785869      -0.19705782
H        5.08009199       4.07333603      -1.58830787
H        2.84524485       3.64429141      -4.27955852
H        3.16121880       4.54043855      -2.80478324
H        0.69068422       2.86861980      -3.61947128
H       -0.71216798       1.39619711      -2.24232068
H        2.66033153       0.54234195       0.29269965
H        4.07911884       1.94671471      -1.09641992
H        8.96493167       4.30679134      -4.14641850
H       11.41827708       5.30224080      -4.22915793
C       -1.71811427      -0.67704283      -7.04403988
C       -1.33895494      -1.84211419      -7.93673214
C       -2.24858113      -3.07983783      -7.96112890
N       -2.75496448      -3.68380165      -6.92150376
N       -2.72824332      -3.14204460      -5.67878161
C       -3.00344885      -3.96761014      -4.58837375
O       -2.89932090      -5.19129443      -4.59042535
C       -3.52821830      -3.21030964      -3.38058320
C       -2.52683614      -2.46501987      -2.52367604
C       -2.79861812      -2.31785794      -1.15173941
C       -1.97657894      -1.53858981      -0.33233989
C       -0.88115129      -0.88115129      -0.88115129
C       -0.58813678      -1.01809818      -2.23397030
C       -1.40296950      -1.81217236      -3.04681739
C       -2.48453323      -3.77099055      -9.23667007
C       -2.91481061      -5.08143012      -9.40462084
C       -3.08937217      -5.44322062     -10.77330536
C       -2.79478787      -4.39032531     -11.59775121
Br      -2.92345802      -4.46844964     -13.46419053
S       -2.30950078      -3.00290718     -10.76220316
H       -1.22585891       0.23774173      -7.39096384
H       -1.36598229      -0.83968757      -6.02314115
H       -2.79729470      -0.50184459      -7.02897056
H       -1.25255893      -1.42583657      -8.94244401
H       -0.33299041      -2.19074866      -7.67330812
H       -2.97543858      -2.16396262      -5.60233469
H       -4.05928132      -3.94750106      -2.76231240
H       -4.29000558      -2.49604288      -3.72039215
H       -3.66499935      -2.80595080      -0.70782515
H       -2.20784492      -1.44365270       0.72514780
H        0.26790980      -0.50821894      -2.66966470
H       -1.12768191      -1.90368286      -4.09088871
H       -3.09692717      -5.75140707      -8.56980727
H       -3.41930297      -6.41699914     -11.11337370
C       -4.33209471       5.81088978      -0.70378751
C       -5.83857629       5.81402746      -0.53480248
C       -6.42282634       5.99192102       0.87480051
N       -6.02645595       5.37817162       1.95564232
N       -4.87330996       4.66684246       2.00891711
C       -4.67767779       3.79855316       3.08320179
O       -5.57449124       3.32840880       3.77814064
C       -3.21177924       3.52986391       3.37746799
C       -2.48135771       2.54513057       2.48904377
C       -1.42557396       1.79947553       3.04316599
C       -0.63528632       0.96509716       2.24712516
C       -0.88115129       0.88115129       0.88115129
C       -1.92478308       1.60340493       0.31201723
C       -2.72376283       2.42373070       1.11446572
C       -7.63225864       6.80822110       1.05171411
C       -8.51697384       6.76178999       2.12209773
C       -9.57357437       7.71437100       2.01795279
C       -9.44858050       8.45881225       0.87547164
Br     -10.63358687       9.82692301       0.39558831
S       -8.10848913       8.02651970      -0.06039770
H       -4.06984014       6.04931044      -1.74006956
H       -3.92194166       4.81736259      -0.51049325
H       -3.84116224       6.53652412      -0.04957651
H       -6.20628988       6.60551228      -1.19096266
H       -6.25224705       4.88088786      -0.93608773
H       -4.05506647       5.09301823       1.59365118
H       -3.16570510       3.18385863       4.41953105
H       -2.66989772       4.48468102       3.35186186
H       -1.20249505       1.86951610       4.10676415
H        0.17272610       0.39789097       2.70118494
H       -2.12393843       1.54130588      -0.75527048
H       -3.53554588       2.95497444       0.63173317
H       -8.40336861       6.06648372       2.94828918
H      -10.36287478       7.83773088       2.74907015
C       -0.03622291      -6.75460091       2.72081899
C        0.91758430      -7.86721238       2.33300458
C        2.27032056      -7.96471558       3.05451172
N        3.08600285      -6.97612006       3.29814699
N        2.72428278      -5.67812818       3.14665857
C        3.72626488      -4.70762741       3.12554046
O        4.90493925      -4.92132190       2.85477954
C        3.23799869      -3.33270137       3.54841108
C        2.46686855      -2.51378230       2.53488120
C        2.55673993      -1.11183318       2.59964236
C        1.77612997      -0.29926885       1.77210982
C        0.88115129      -0.88115129       0.88115129
C        0.78052065      -2.26571071       0.79397389
C        1.57534357      -3.07525649       1.61135918
C        2.80721543      -9.28990773       3.39507069
C        4.13386186      -9.60574577       3.66125393
C        4.32612737     -10.97735117       4.00241961
C        3.13568710     -11.65399440       3.99318288
Br       2.97448204     -13.47260872       4.40900744
S        1.81733742     -10.68100369       3.57627002
H       -1.05749136      -7.01424574       2.42232664
H        0.20721678      -5.83196245       2.18963178
H       -0.03135247      -6.56228676       3.79717556
H        0.35770566      -8.79480682       2.46832703
H        1.13253363      -7.80522060       1.25929295
H        1.81896353      -5.41153388       3.51123848
H        4.12953591      -2.77390334       3.86565553
H        2.61582867      -3.44417840       4.44643353
H        3.23479667      -0.63684824       3.30713039
H        1.86698645       0.78138427       1.84074763
H        0.08397860      -2.72772094       0.09827430
H        1.47589828      -4.14833912       1.49801608
H        4.93342935      -8.87280222       3.61190993
H        5.28380289     -11.42098785       4.24488507
