181
Properties=species:S:1:pos:R:3 pbc="F F F"
C        0.00000000       0.00000000       0.00000000
O        7.80153102      12.00842289      -0.45886691
C        7.28311206      11.06591080       0.14241795
N        7.18855052       9.83014629      -0.45818304
N        6.72667167       8.74302421       0.20774799
C        6.57709679       7.61871446      -0.42849987
C        6.84868798       7.43190371      -1.90650051
C        6.07881627       6.45140131       0.35000699
C        6.50150516       6.26915030       1.67038754
C        6.00081080       5.20616453       2.41889729
C        5.07062946       4.33111678       1.85025453
C        4.64216874       4.50516853       0.52856639
N        3.70336449       3.58690154       0.01884900
C        3.28637251       3.45511051      -1.29488320
O        3.69979468       4.11967997      -2.23906494
C        2.31656641       2.39515947      -1.48342764
C        1.82118086       1.82601487      -2.64077940
C        0.89357440       0.83547459      -2.24223464
C        0.86705924       0.86705924      -0.86705924
O        1.73912736       1.79798247      -0.39303714
C        5.14606959       5.57459970      -0.21408539
C        6.70955168      11.20876714       1.54274781
C        7.73449928      11.10843697       2.64987829
C        7.82957130      12.12270865       3.61309125
C        8.73465372      12.01555035       4.67253522
C        9.54578899      10.88892419       4.77826473
Br      10.76405896      10.73780946       6.21574865
C        9.46231850       9.86885419       3.83538479
C        8.55706573       9.97917822       2.77791542
H        7.55813200       9.75824339      -1.39872992
H        6.12699329       8.01948415      -2.48149968
H        6.77581267       6.38508280      -2.21071462
H        7.86224185       7.76709934      -2.14404706
H        7.21509470       6.95478042       2.12209127
H        6.33072975       5.06169228       3.44464994
H        4.69362829       3.50958966       2.45527748
H        3.32503429       2.90024875       0.66306710
H        2.11125508       2.10170109      -3.64663814
H        0.31332807       0.18558863      -2.88290182
H        4.78931072       5.77184593      -1.21870812
H        5.90972439      10.48188285       1.72392152
H        6.21525422      12.18873946       1.57106439
H        7.19598888      13.00518409       3.54708387
H        8.79373287      12.81330038       5.40747623
H       10.08917719       8.98534666       3.91254806
H        8.49971320       9.16913829       2.05547302
O      -11.99281812      -0.44998911      -7.82601359
C      -11.05013204       0.15039708      -7.30686995
N       -9.81584824      -0.45261801      -7.20841360
N       -8.72829584       0.21198774      -6.74563978
C       -7.60565850      -0.42632122      -6.59233140
C       -7.42141058      -1.90528740      -6.86039422
C       -6.43775354       0.35076727      -6.09322432
C       -6.25180534       1.66985863      -6.51832123
C       -5.18829607       2.41717625      -6.01695823
C       -4.31642954       1.84865701      -5.08371918
C       -4.49419352       0.52825296      -4.65283031
N       -3.57900113       0.01858558      -3.71100148
C       -3.45088253      -1.29453474      -3.29094894
O       -4.11657747      -2.23818213      -3.70377998
C       -2.39339066      -1.48326491      -2.31849795
C       -1.82775456      -2.64076548      -1.81945509
C       -0.83833758      -2.24235164      -0.89059441
C       -0.86705924      -0.86705924      -0.86705924
O       -1.79512494      -0.39291853      -1.74210350
C       -5.56412894      -0.21319988      -5.15742587
C      -11.19123022       1.55224071      -6.73658150
C      -11.08637947       2.65697810      -7.76365659
C      -12.09840066       3.62213330      -7.86292134
C      -11.98707693       4.67942436      -8.77001629
C      -10.85851330       4.78104528      -9.57898044
Br     -10.70176750       6.21561670     -10.79996897
C       -9.84062608       3.83618611      -9.49134792
C       -9.95511171       2.78087670      -8.58409353
H       -9.74515928      -1.39409746      -7.57584857
H       -8.01173756      -2.47750750      -6.13873206
H       -6.37539448      -2.21156277      -6.78465284
H       -7.75496208      -2.14427430      -7.87415187
H       -6.93496208       2.12149791      -7.23431968
H       -5.04094835       3.44191798      -6.34874172
H       -3.49442041       2.45273737      -4.70625743
H       -2.89178534       0.66214941      -3.33258000
H       -2.10496020      -3.64665147      -2.10798263
H       -0.19104350      -2.88316084      -0.30761419
H       -5.76426240      -1.21664302      -4.79895936
H      -10.46565879       1.73357171      -5.93559864
H      -12.17218502       1.58368210      -6.24442637
H      -12.98235426       3.55934029      -7.23107513
H      -12.78313821       5.41592641      -8.83234522
H       -8.95563096       3.91014703     -10.11649186
H       -9.14673039       2.05684351      -8.52349158
O      -12.58163486       0.89124514       6.79594082
C      -11.64910371       0.25250228       6.30499892
N      -10.36460342       0.74546887       6.36680756
N       -9.29893790       0.02492309       5.93808690
C       -8.11718833       0.56780690       5.93931589
C       -7.83446438       1.99566767       6.35696015
C       -6.97792949      -0.26867884       5.47095995
C       -6.94369542      -1.63038978       5.78696229
C       -5.90530053      -2.42753655       5.31031406
C       -4.90643982      -1.86510609       4.51015798
C       -4.93190984      -0.50235823       4.18921926
N       -3.89422908      -0.00158458       3.37877254
C       -3.61781873       1.32486374       3.09368374
O       -4.23681890       2.28764078       3.53407990
C       -2.46316880       1.49668837       2.23529635
C       -1.75849904       2.63510959       1.89436650
C       -0.72486832       2.22697455       1.01944076
C       -0.86705924       0.86705924       0.86705924
O       -1.90837152       0.40834591       1.61342955
C       -5.97747231       0.28928887       4.66799351
C      -11.85469490      -1.07735042       5.59822652
C      -11.93828495      -2.26963020       6.52440320
C      -13.03284263      -3.14243595       6.44878203
C      -13.09496773      -4.27812855       7.26082968
C      -12.05826070      -4.55100229       8.14919004
Br     -12.13599981      -6.09165148       9.24177144
C      -10.96066355      -3.69985389       8.23497824
C      -10.90182789      -2.56582293       7.42232358
H      -10.24897921       1.64212709       6.82399900
H       -8.30553383       2.67855680       5.64388648
H       -6.76384993       2.20963255       6.39812762
H       -8.23860280       2.17809031       7.35669513
H       -7.72547560      -2.07592542       6.39823367
H       -5.87597744      -3.48578398       5.55757863
H       -4.10699689      -2.50834048       4.14928406
H       -3.23176375      -0.67150377       3.00195595
H       -1.97535987       3.63434591       2.24988852
H        0.02502022       2.85229696       0.55454178
H       -6.05850635       1.33351160       4.38784683
H      -11.07633192      -1.25658260       4.84793640
H      -12.78532238      -0.97677722       5.02438413
H      -13.84642833      -2.94552681       5.75318757
H      -13.95259054      -4.94083831       7.18780479
H      -10.14636827      -3.90737491       8.92298243
H      -10.03319077      -1.91676426       7.49695196
O        4.14665900     -13.45180598       2.67035584
C        3.70648784     -12.57235298       1.92776409
N        4.14620323     -11.27361866       2.05705796
N        3.77081576     -10.30021385       1.19091828
C        4.14529979      -9.07345107       1.40556026
C        4.95840124      -8.62640215       2.60228881
C        3.71774956      -8.04350057       0.41896047
C        3.67916313      -8.36293727      -0.94183246
C        3.23357839      -7.41851480      -1.86401514
C        2.81787699      -6.15819975      -1.42458504
C        2.85380275      -5.82901063      -0.06404250
N        2.42050962      -4.54165412       0.30925330
C        2.54146155      -3.94301495       1.55188971
O        3.07837702      -4.44818245       2.53198011
C        2.00290562      -2.59848051       1.59376739
C        2.10892742      -1.61785071       2.56119701
C        1.38380318      -0.49948888       2.08799157
C        0.86705924      -0.86705924       0.86705924
O        1.24961331      -2.13324204       0.54729163
C        3.29857733      -6.78185418       0.85432318
C        2.65988902     -12.85365785       0.86202414
C        3.21825849     -13.40519590      -0.43039643
C        2.70728024     -14.59646996      -0.96456148
C        3.17621600     -15.08751172      -2.18605886
C        4.15511107     -14.38540211      -2.88406473
Br       4.78402318     -15.04306429      -4.54096769
C        4.67084056     -13.19814759      -2.37320026
C        4.20025296     -12.71039789      -1.15232231
H        4.82896521     -11.10082006       2.78532004
H        4.36212294      -8.75555054       3.51030364
H        5.26527492      -7.58062219       2.52571298
H        5.87024758      -9.22551530       2.67762537
H        3.98898208      -9.34662350      -1.28782173
H        3.20572872      -7.66461672      -2.92257335
H        2.47312266      -5.43854045      -2.16372265
H        2.02656186      -3.95295586      -0.41730178
H        2.65501659      -1.71358545       3.49099226
H        1.25166926       0.45286751       2.58301677
H        3.28142627      -6.57918334       1.91925518
H        2.05970105     -11.96277351       0.64521116
H        1.95630844     -13.56933527       1.30728558
H        1.93619077     -15.15130993      -0.43341161
H        2.76816419     -16.01320452      -2.58181169
H        5.43220136     -12.64283413      -2.91305970
H        4.60856765     -11.77740997      -0.77259915
