170
Properties=species:S:1:pos:R:3 pbc="F F F"
C        8.54610338       8.32565277      -1.71954435
C        7.92706619       7.68868459      -2.95402404
C        7.70635757       6.16999429      -2.93221153
N        6.55942349       5.59869824      -3.20525166
N        5.44506365       6.31337940      -3.47676054
C        4.29572734       5.74134973      -3.96886022
O        3.29490337       6.44160734      -4.15372580
C        4.31324391       4.25000788      -4.28760497
C        3.40639829       3.42000140      -3.40552788
C        3.37025229       3.60642613      -2.01730069
C        2.55706334       2.80200673      -1.21154079
C        1.79142348       1.79142348      -1.79142348
C        1.83199840       1.57635181      -3.16555710
C        2.63901399       2.38591792      -3.96949988
C        8.87011909       5.21333289      -2.72071622
C        8.67046229       3.85075296      -3.00804958
C        9.69808021       2.91549341      -2.86647217
C       10.94680381       3.32860944      -2.42041600
Br      12.34535284       2.07499936      -2.22775311
C       11.16939728       4.66818913      -2.12114364
C       10.13960734       5.60789076      -2.28107358
H        8.09331640       9.31358150      -1.53506222
H        9.61263558       8.52917993      -1.87169428
H        8.42395661       7.71719252      -0.81734544
H        8.55080174       7.91107621      -3.82888100
H        6.99070241       8.21139456      -3.12394759
H        5.37923977       7.30498683      -3.28403259
H        5.31921667       3.82823413      -4.24289630
H        3.99685861       4.16506974      -5.33483103
H        3.97127765       4.38016690      -1.54674932
H        2.53168290       2.97263153      -0.13891453
H        1.24494721       0.78477220      -3.62033564
H        2.66587663       2.20261920      -5.04211254
H        7.70513909       3.49600410      -3.36242217
H        9.51188868       1.87307077      -3.11183098
H       12.14367788       5.00070183      -1.76675335
H       10.38206230       6.63535810      -2.04520313
C       -9.40914263      -1.88726374      -7.29489412
C       -8.48037443      -3.06155163      -7.02784876
C       -6.97009858      -2.78913007      -7.04933474
N       -6.15718981      -3.12708327      -6.07910031
N       -6.59721831      -3.70066540      -4.93731988
C       -5.74859428      -4.25120423      -4.00613877
O       -6.20969511      -4.72017409      -2.96036732
C       -4.25599014      -4.27647852      -4.31838811
C       -3.41972172      -3.40811710      -3.40408874
C       -3.81258391      -2.10326154      -3.07813365
C       -3.00672394      -1.29892593      -2.26496099
C       -1.79142348      -1.79142348      -1.79142348
C       -1.37384969      -3.07652242      -2.12353521
C       -2.18382229      -3.88103985      -2.92956965
C       -6.29534749      -2.22034601      -8.28847470
C       -4.89160198      -2.27368187      -8.36398098
C       -4.20092220      -1.79817777      -9.48094582
C       -4.90696378      -1.24665907     -10.54220640
Br      -3.98562474      -0.60315896     -12.05932161
C       -6.29461794      -1.17379967     -10.49031243
C       -6.98629979      -1.66827314      -9.37399873
H      -10.31059163      -1.96595810      -6.66541039
H       -9.78334538      -1.90486930      -8.32529510
H       -8.93862414      -0.91736375      -7.10250669
H       -8.67545943      -3.85310644      -7.76219308
H       -8.78386951      -3.47242409      -6.06975097
H       -7.57642956      -3.71102515      -4.68080448
H       -4.04370049      -3.99501789      -5.35162872
H       -3.94887937      -5.32550695      -4.22237306
H       -4.75004718      -1.69809209      -3.45005459
H       -3.33651973      -0.29532311      -2.01138613
H       -0.42421461      -3.46083795      -1.76500249
H       -1.84202243      -4.88200820      -3.18657774
H       -4.30998616      -2.70262253      -7.55095668
H       -3.11667762      -1.86901275      -9.51110006
H       -6.85636937      -0.73924021     -11.31552347
H       -8.06514977      -1.59494416      -9.40252960
C       -1.93166756       9.51433862       7.14529432
C       -3.12002175       8.61889456       6.83085852
C       -3.28435645       8.14332703       5.38087991
N       -3.43515975       6.88704611       5.04116753
N       -3.40052155       5.88615501       5.94852703
C       -3.76431131       4.59510843       5.64651754
O       -3.66716383       3.71503478       6.50803792
C       -4.29760340       4.30603657       4.24721680
C       -3.40354508       3.40889025       3.41949223
C       -2.01807668       3.61077457       3.36512786
C       -1.21082829       2.79801401       2.56176856
C       -1.79142348       1.79142348       1.79142348
C       -3.16816253       1.59095199       1.81479280
C       -3.97181010       2.39886381       2.62375788
C       -3.42169173       9.14142565       4.24105083
C       -3.86767836       8.66789930       2.99368718
C       -4.04628045       9.52684618       1.90691916
C       -3.76802287      10.88026384       2.04754254
Br      -4.00827441      12.05259879       0.58723211
C       -3.31778803      11.37388726       3.26705476
C       -3.15602321      10.51089136       4.36165710
H       -1.52769996       9.27232520       8.14193496
H       -2.23512204      10.56573891       7.21264883
H       -1.12169757       9.42270628       6.41409073
H       -4.04744729       9.13586748       7.10744418
H       -3.04570421       7.77293810       7.50740224
H       -3.05522003       6.02277800       6.89026116
H       -4.49105369       5.21884652       3.68044690
H       -5.27482475       3.82880944       4.39312519
H       -1.55025443       4.39980867       3.94813077
H       -0.13685700       2.96110160       2.54527036
H       -3.62568531       0.81475037       1.20961937
H       -5.04789439       2.23501925       2.62769473
H       -4.09730145       7.61408519       2.85217872
H       -4.40653114       9.12824913       0.96201016
H       -3.09298271      12.43256201       3.38558834
H       -2.81699244      10.96027386       5.28535722
C        3.93296002      -3.98196525      10.67637523
C        4.51361895      -4.62807876       9.42807712
C        3.54117696      -4.97493835       8.29244808
N        3.71371543      -4.60087042       7.04878754
N        4.74802158      -3.81861043       6.66857157
C        5.06408884      -3.59203318       5.34981525
O        5.99412000      -2.82995075       5.06616577
C        4.25352145      -4.31689462       4.28044069
C        3.41507039      -3.40127483       3.41558235
C        2.64610084      -2.37244582       3.97543245
C        1.84372674      -1.56138200       3.16550212
C        1.79142348      -1.79142348       1.79142348
C        2.53024156      -2.82311816       1.22054759
C        3.33698075      -3.62719649       2.03025454
C        2.36526209      -5.91088902       8.52801709
C        1.69398659      -6.42951803       7.40576022
C        0.62368412      -7.31682235       7.53953931
C        0.19665127      -7.69260633       8.80657165
Br      -1.24690521      -8.89379541       9.00121512
C        0.83685384      -7.18852621       9.93335000
C        1.92289702      -6.31078948       9.79488517
H        4.63434010      -3.23144572      11.07617430
H        3.81536758      -4.71484466      11.48329755
H        2.97042050      -3.49191962      10.49615446
H        5.02889337      -5.55612824       9.70573735
H        5.29178834      -3.95714492       9.07711130
H        5.31758475      -3.31427002       7.33640442
H        3.60259960      -5.08477570       4.70297180
H        4.98593302      -4.84975991       3.66106645
H        2.66383480      -2.18795767       5.04640140
H        1.26678490      -0.75925764       3.61718642
H        2.48542041      -3.01197117       0.15266346
H        3.90480991      -4.43450330       1.57129516
H        2.00630510      -6.15729762       6.39996264
H        0.13797545      -7.70907316       6.64974182
H        0.50643340      -7.47399960      10.93070005
H        2.38590430      -5.96675370      10.70996552
C       -0.00445707       0.01189536      -1.78238275
H       -0.66409135       0.67374010      -2.43557963
H        0.65740317      -0.63156657      -2.45157240
C       -0.90989263      -0.90692880      -0.91072765
C        0.90977584       0.90977584      -0.90977584
C       -0.00465871       1.77757030       0.00794375
H       -0.66225468       2.44313916      -0.64384735
H        0.64322798       2.43503045       0.67728295
C       -1.78241447       0.00034974      -0.00472694
H       -2.45427497      -0.65498947       0.64260836
H       -2.43311707       0.67328779      -0.65473579
C       -0.91132561       0.90220522       0.91563759
C       -0.01476271      -0.02253852       1.78660255
H       -0.67934791      -0.69751639       2.42135241
H        0.63392994       0.61504881       2.47327442
C        0.01484550      -1.77751727      -0.01636693
H        0.67870853      -2.42144646      -0.68295456
H       -0.62264859      -2.45592969       0.64226336
C        1.78714474       0.01002794       0.00389507
H        2.44202412       0.67113390       0.66197326
H        2.45385902      -0.65136977      -0.64189061
C        0.91606151      -0.90478549       0.90901405
