149
Properties=species:S:1:pos:R:3 pbc="F F F"
C        0.00000000       0.00000000       0.00000000
C        7.63619935       7.41574875      -0.80964033
C        7.01716216       6.77878057      -2.04412002
C        6.79645354       5.26009027      -2.02230750
N        5.64951947       4.68879421      -2.29534764
N        4.53515963       5.40347537      -2.56685652
C        3.38582331       4.83144570      -3.05895619
O        2.38499935       5.53170332      -3.24382178
C        3.40333989       3.34010386      -3.37770095
C        2.49649426       2.51009737      -2.49562386
C        2.46034827       2.69652210      -1.10739667
C        1.64715932       1.89210270      -0.30163677
C        0.88151945       0.88151945      -0.88151945
C        0.92209438       0.66644779      -2.25565307
C        1.72910996       1.47601390      -3.05959585
C        7.96021507       4.30342886      -1.81081220
C        7.76055827       2.94084894      -2.09814556
C        8.78817618       2.00558939      -1.95656814
C       10.03689979       2.41870541      -1.51051198
Br      11.43544881       1.16509534      -1.31784909
C       10.25949325       3.75828511      -1.21123962
C        9.22970331       4.69798674      -1.37116955
H        7.18341237       8.40367747      -0.62515820
H        8.70273155       7.61927590      -0.96179025
H        7.51405259       6.80728850       0.09255858
H        7.64089772       7.00117219      -2.91897697
H        6.08079839       7.30149053      -2.21404356
H        4.46933574       6.39508281      -2.37412857
H        4.40931264       2.91833011      -3.33299228
H        3.08695458       3.25516572      -4.42492701
H        3.06137363       3.47026287      -0.63684529
H        1.62177888       2.06272750       0.77098949
H        0.33504318      -0.12513183      -2.71043162
H        1.75597261       1.29271517      -4.13220852
H        6.79523507       2.58610008      -2.45251814
H        8.60198466       0.96316675      -2.20192696
H       11.23377385       4.09079781      -0.85684933
H        9.47215827       5.72545408      -1.13529910
C       -5.26339931      -1.41990592      -9.17828320
C       -5.21718803      -2.50705928      -8.11581544
C       -3.86786817      -2.77551674      -7.43546641
N       -3.70095653      -2.79650277      -6.13620202
N       -4.70668891      -2.52274053      -5.27606208
C       -4.60931680      -2.74428324      -3.92262516
O       -5.54744561      -2.43046536      -3.18261348
C       -3.33712321      -3.39473136      -3.38929012
C       -2.50870832      -2.49248249      -2.50102467
C       -2.24706490      -1.16225148      -2.85495066
C       -1.44429034      -0.35381308      -2.04279537
C       -0.88151945      -0.88151945      -0.88151945
C       -1.11133166      -2.20698273      -0.52588085
C       -1.91971228      -3.01057443      -1.33443301
C       -2.64735552      -3.17723809      -8.24986252
C       -1.53469644      -3.69938848      -7.56546784
C       -0.38821662      -4.11697199      -8.24514510
C       -0.33083654      -4.00683547      -9.62844517
Br       1.21180388      -4.57062348     -10.55957363
C       -1.41316356      -3.48644637     -10.32940805
C       -2.57007003      -3.08397510      -9.64481447
H       -6.21882405      -0.87324277      -9.12018123
H       -5.24678329      -1.85063309     -10.18638133
H       -4.44670177      -0.69634004      -9.08574070
H       -5.55223661      -3.45616426      -8.55264601
H       -5.97231358      -2.24194501      -7.38207390
H       -5.57148407      -2.09066465      -5.57639840
H       -2.69805111      -3.77311535      -4.18946857
H       -3.66679426      -4.27579678      -2.82445626
H       -2.66599524      -0.73853352      -3.76395303
H       -1.26593587       0.67946946      -2.32705047
H       -0.66770631      -2.62487327       0.37223660
H       -2.08607480      -4.04730882      -1.04751269
H       -1.54959365      -3.80165606      -6.48260358
H        0.44698924      -4.52925221      -7.68481539
H       -1.37572741      -3.39226171     -11.41343187
H       -3.38127284      -2.70182716     -10.24981145
C       -5.41258681       9.10222399       1.34677763
C       -5.41628720       8.01431013       2.40946543
C       -5.57884489       6.56317129       1.93683513
N       -4.76508816       5.59368334       2.27488982
N       -3.66650007       5.80637417       3.03261728
C       -2.92381649       4.78193182       3.57047690
O       -1.90322389       5.04052117       4.21677939
C       -3.41022592       3.35202069       3.35889809
C       -2.49288258       2.50909300       2.50023991
C       -1.95132080       3.00572777       1.30721846
C       -1.13846914       2.19871002       0.50371963
C       -0.88151945       0.88151945       0.88151945
C       -1.42940651       0.36371901       2.05106972
C       -2.23477424       1.17380720       2.85613827
C       -6.80151797       6.13197537       1.14096279
C       -7.04826422       4.75452472       0.99676383
C       -8.16507286       4.28032569       0.30493516
C       -9.05241355       5.18198548      -0.26828184
Br     -10.56765573       4.55413536      -1.20339785
C       -8.82818478       6.54906042      -0.14822722
C       -7.71443651       7.02209863       0.56232447
H       -4.69754885       9.89576217       1.61893703
H       -6.38477709       9.60620603       1.29281459
H       -5.14894056       8.72772328       0.35211867
H       -6.22179148       8.21129160       3.12796379
H       -4.49275306       8.13638773       2.96719169
H       -3.30015958       6.73437165       3.20401590
H       -4.41427118       3.31450028       2.93186358
H       -3.49225123       2.91344230       4.36135378
H       -2.15268319       4.02565127       0.99014733
H       -0.71585649       2.60749354      -0.40983314
H       -1.23986165      -0.66393450       2.34441582
H       -2.66182640       0.75398133       3.76508857
H       -6.37413410       4.02294237       1.43677681
H       -8.33190777       3.20913265       0.22603794
H       -9.51589421       7.26338842      -0.59786164
H       -7.60564878       8.09612785       0.63113481
C        3.02812055      -3.06696346       9.76650442
C        3.60734633      -3.71445955       8.51825688
C        2.63378355      -4.06144174       7.38362602
N        2.80566384      -3.68844471       6.13955277
N        3.84027311      -2.90725508       5.75796332
C        4.15551379      -2.68191400       4.43879741
O        5.08590593      -1.92075003       4.15386849
C        3.34358989      -3.40697021       3.37058460
C        2.50517718      -2.49137042       2.50566789
C        1.73740937      -1.46153703       3.06532064
C        0.93503612      -0.65047893       2.25538374
C        0.88151945      -0.88151945       0.88151945
C        1.61912531      -1.91420404       0.31086589
C        2.42586876      -2.71828013       1.12057082
C        1.45734003      -4.99632418       7.62079192
C        0.78482383      -5.51529344       6.49943550
C       -0.28604758      -6.40168640       6.63469489
C       -0.71240572      -6.77618928       7.90233361
Br      -2.15672217      -7.97613843       8.09897698
C       -0.07097001      -6.27174199       9.02824600
C        1.01563133      -5.39493206       8.88829622
H        3.73037004      -2.31667275      10.16520526
H        2.91058460      -3.79914349      10.57406962
H        2.06581569      -2.57632616       9.58664066
H        4.12212895      -4.64268841       8.79622952
H        4.38575696      -3.04438011       8.16619542
H        4.41072244      -2.40284100       6.42498367
H        2.69240758      -4.17403899       3.79418846
H        4.07512963      -3.94085751       2.75106017
H        1.75609300      -1.27625280       4.13613600
H        0.35904270       0.15242290       2.70689709
H        1.57335354      -2.10383031      -0.75684088
H        2.99274009      -3.52636301       0.66179320
H        1.09658703      -5.24406980       5.49319645
H       -0.77272566      -6.79424218       5.74556183
H       -0.40085154      -6.55621129      10.02606124
H        1.47959071      -5.05055499       9.80276575
