198
Properties=species:S:1:pos:R:3 pbc="F F F"
C        1.79122509       1.79122509      -1.79122509
C        2.98731835       1.28984271      -2.29839352
C        3.79987967       2.10069529      -3.09670598
C        3.41937361       3.41524959      -3.40013787
C        2.20690648       3.90197453      -2.88116188
C        1.39596888       3.09490285      -2.08021653
C        4.27644774       4.34781525      -4.23131890
O        5.41489507       3.67707581      -4.78443646
C        6.13307961       4.37902306      -5.71780881
C        6.21296225       5.77728943      -5.74134271
C        6.96597402       6.42771271      -6.72374566
C        7.64599433       5.68621804      -7.68566678
Br       8.65471136       6.57623922      -9.01346165
C        7.59422314       4.29584345      -7.66938002
C        6.84821556       3.64404393      -6.67745882
C        6.82012878       2.16438977      -6.65387026
N        7.33166581       1.46205973      -7.61562078
N        7.26185339       0.10958219      -7.45691114
C        7.74086568      -0.72045004      -8.46049856
O        8.23049478      -0.33291579      -9.52177091
C        7.69421141      -2.18918908      -8.20096376
C        6.85710776      -2.74686649      -7.22453704
C        6.87436009      -4.12174914      -6.99812166
O        6.04909394      -4.60746462      -6.02713932
C        7.69864221      -4.96545846      -7.73495927
C        8.51352647      -4.42322895      -8.72650152
C        8.50575727      -3.04827240      -8.96197207
O        9.32926855      -2.61044638      -9.96640791
H        3.30023404       0.27446073      -2.07261192
H        4.73476743       1.69343429      -3.47300818
H        1.88765953       4.92149395      -3.09411171
H        0.46336844       3.49297135      -1.68526381
H        4.61301713       5.15572664      -3.57107105
H        3.65763493       4.74951238      -5.04495946
H        5.71618909       6.39348224      -4.99828236
H        7.01808943       7.51569150      -6.72661419
H        8.13409771       3.71882079      -8.41680342
H        6.34142632       1.68020633      -5.78434168
H        6.96710941      -0.25540027      -6.56075245
H        6.16721634      -2.14756713      -6.64226707
H        6.14491587      -5.57438185      -5.98989936
H        7.71481644      -6.03729676      -7.56162104
H        9.15571576      -5.06814654      -9.32256529
H        9.14410944      -1.65337741     -10.11222030
C       -1.79122509      -1.79122509      -1.79122509
C       -1.62005254      -3.17320319      -1.78229885
C       -2.41996724      -3.97960726      -2.59770644
C       -3.40145035      -3.41160561      -3.42170512
C       -3.56084892      -2.01487682      -3.41431715
C       -2.76002851      -1.20745825      -2.60360150
C       -4.27232888      -4.23395424      -4.34929876
O       -4.07735738      -5.64022536      -4.15882459
C       -4.96685495      -6.46398750      -4.79906903
C       -5.61693609      -6.12269463      -5.99196366
C       -6.51265464      -7.01379034      -6.59098741
C       -6.76173727      -8.25143579      -6.00470609
Br      -7.98019007      -9.44503665      -6.81918550
C       -6.11295696      -8.61712987      -4.82935977
C       -5.20658310      -7.72781489      -4.23532031
C       -4.50285351      -8.13651892      -2.99901638
N       -4.82057857      -9.22227501      -2.36649273
N       -4.07652397      -9.49496179      -1.25686095
C       -4.37900418     -10.61149871      -0.49041131
O       -5.29612820     -11.39924949      -0.72397221
C       -3.48977173     -10.89106577       0.67485140
C       -2.66761228      -9.90507738       1.23791136
C       -1.83070670     -10.22517286       2.30514694
O       -1.04320962      -9.23002495       2.80446594
C       -1.80160869     -11.50802368       2.84148934
C       -2.63575923     -12.48723890       2.30619908
C       -3.47738829     -12.17924394       1.23717528
O       -4.27081108     -13.20293111       0.78851211
H       -0.86339323      -3.63176150      -1.15215196
H       -2.26226161      -5.05497709      -2.58397120
H       -4.31067199      -1.54380985      -4.04878335
H       -2.89724027      -0.12801386      -2.61634947
H       -4.00072305      -3.96283158      -5.37626018
H       -5.32212756      -3.97997689      -4.15000232
H       -5.43629929      -5.17736261      -6.49429179
H       -7.00864412      -6.73265752      -7.51909347
H       -6.30264716      -9.58860969      -4.37846507
H       -3.69664297      -7.47653791      -2.63279345
H       -3.24887449      -8.93976892      -1.08381819
H       -2.67058507      -8.87949617       0.88816496
H       -0.53100255      -9.58181663       3.55238579
H       -1.15099067     -11.76131522       3.67316517
H       -2.63718893     -13.49327612       2.72033054
H       -4.89543157     -12.83062696       0.12310621
C       -1.79122509       1.79122509       1.79122509
C       -1.55193810       3.16123290       1.86238358
C       -2.35233608       3.96685702       2.67808784
C       -3.40199981       3.41058165       3.42217961
C       -3.62942415       2.02605448       3.33456426
C       -2.82841597       1.21914034       2.52353196
C       -4.27820897       4.23026019       4.34711273
O       -4.00457738       5.63221017       4.23961978
C       -4.88439489       6.46842131       4.87709528
C       -5.61145514       6.10292218       6.01721708
C       -6.49202370       7.00864786       6.61676082
C       -6.64910278       8.28492073       6.08385563
Br      -7.84784202       9.49848898       6.89808123
C       -5.92304733       8.67396142       4.96243785
C       -5.03202133       7.76921406       4.36848292
C       -4.24587872       8.20130993       3.19120016
N       -4.47651134       9.33191841       2.60091657
N       -3.66341398       9.62001408       1.54491865
C       -3.87038279      10.78713297       0.82339844
O       -4.75845181      11.60889412       1.05200398
C       -2.90925691      11.07730764      -0.28057846
C       -2.10859849      10.07897287      -0.85279305
C       -1.20274944      10.40745451      -1.85947134
O       -0.44041964       9.39863971      -2.37029072
C       -1.08272116      11.71193837      -2.32651651
C       -1.89423439      12.70550703      -1.78294237
C       -2.80429131      12.38925163      -0.77408599
O       -3.56850002      13.42933557      -0.31260551
H       -0.74196222       3.61044671       1.29489776
H       -2.14133887       5.03197648       2.72789455
H       -4.43342147       1.56379689       3.90604683
H       -3.01912135       0.14894320       2.47353905
H       -4.07388433       3.89515591       5.37077457
H       -5.32750380       4.04116368       4.08343928
H       -5.50389306       5.12589828       6.47816234
H       -7.04869867       6.70821428       7.50348216
H       -6.04101712       9.67500128       4.55370351
H       -3.45526810       7.51927636       2.83142986
H       -2.85626896       9.03187120       1.38432143
H       -2.18022145       9.03893946      -0.55724464
H        0.12657367       9.75983292      -3.07282587
H       -0.37818328      11.97183641      -3.11087897
H       -1.82462848      13.72944691      -2.14394089
H       -4.24435288      13.05757429       0.30102517
C        1.79122509      -1.79122509       1.79122509
C        2.66891499      -1.20620727       2.70043231
C        3.48402665      -2.01326788       3.49998642
C        3.42231945      -3.41024269       3.40219894
C        2.52775809      -3.98174611       2.48053870
C        1.71576170      -3.17716890       1.67815766
C        4.30552652      -4.33106484       4.21899053
O        5.07307418      -3.61192346       5.19140969
C        5.74124338      -4.37373333       6.11493478
C        6.19367602      -5.67518713       5.86273124
C        6.87004480      -6.39468954       6.85269804
C        7.10153674      -5.81806997       8.09827244
Br       8.01021048      -6.80269668       9.43150507
C        6.67610367      -4.52004936       8.36329358
C        6.00794602      -3.79516877       7.36660352
C        5.58186093      -2.40636757       7.65016031
N        5.66602085      -1.90213044       8.84119503
N        5.26418970      -0.60453116       8.95962585
C        5.27404228       0.00119167      10.20806359
O        5.61467889      -0.54900707      11.25566394
C        4.88349203       1.44035743      10.26285149
C        4.15232635       2.05339604       9.23584800
C        3.84039516       3.40897576       9.31931321
O        3.13886672       3.95551334       8.28541525
C        4.22695299       4.17361867      10.41480870
C        4.92984444       3.56623386      11.45318847
C        5.24877570       2.21011636      11.38079761
O        5.92847344       1.69898929      12.45574593
H        2.73259194      -0.12548767       2.78922709
H        4.17009906      -1.53608443       4.19502641
H        2.46199010      -5.06417871       2.37709638
H        1.03327090      -3.64014153       0.96819117
H        4.98213449      -4.83721632       3.52046400
H        3.66247771      -5.06157113       4.72805793
H        6.05349165      -6.15529660       4.89916543
H        7.21592865      -7.40524168       6.63922479
H        6.86651840      -4.06875670       9.33444681
H        5.18443114      -1.81562029       6.80592289
H        5.07760528      -0.07938104       8.11547527
H        3.79227306       1.50425623       8.37389945
H        2.97217954       4.89321128       8.48146512
H        3.98566061       5.23011811      10.48359822
H        5.22974155       4.14429965      12.32469260
H        5.98565128       0.72191341      12.33921446
C       -0.00445707       0.01189536      -1.78238275
H       -0.66409135       0.67374010      -2.43557963
H        0.65740317      -0.63156657      -2.45157240
C       -0.90989263      -0.90692880      -0.91072765
C        0.90977584       0.90977584      -0.90977584
C       -0.00465871       1.77757030       0.00794375
H       -0.66225468       2.44313916      -0.64384735
H        0.64322798       2.43503045       0.67728295
C       -1.78241447       0.00034974      -0.00472694
H       -2.45427497      -0.65498947       0.64260836
H       -2.43311707       0.67328779      -0.65473579
C       -0.91132561       0.90220522       0.91563759
C       -0.01476271      -0.02253852       1.78660255
H       -0.67934791      -0.69751639       2.42135241
H        0.63392994       0.61504881       2.47327442
C        0.01484550      -1.77751727      -0.01636693
H        0.67870853      -2.42144646      -0.68295456
H       -0.62264859      -2.45592969       0.64226336
C        1.78714474       0.01002794       0.00389507
H        2.44202412       0.67113390       0.66197326
H        2.45385902      -0.65136977      -0.64189061
C        0.91606151      -0.90478549       0.90901405
