177
Properties=species:S:1:pos:R:3 pbc="F F F"
C        0.00000000       0.00000000       0.00000000
C        0.88132107       0.88132107      -0.88132107
C        2.07741433       0.37993869      -1.38848949
C        2.88997565       1.19079127      -2.18680195
C        2.50946958       2.50534557      -2.49023385
C        1.29700246       2.99207051      -1.97125785
C        0.48606486       2.18499882      -1.17031251
C        3.36654371       3.43791122      -3.32141488
O        4.50499104       2.76717178      -3.87453244
C        5.22317559       3.46911904      -4.80790479
C        5.30305823       4.86738541      -4.83143868
C        6.05607000       5.51780869      -5.81384163
C        6.73609030       4.77631402      -6.77576275
Br       7.74480733       5.66633519      -8.10355763
C        6.68431911       3.38593942      -6.75947599
C        5.93831154       2.73413991      -5.76755479
C        5.91022476       1.25448574      -5.74396623
N        6.42176178       0.55215571      -6.70571675
N        6.35194936      -0.80032184      -6.54700711
C        6.83096166      -1.63035407      -7.55059454
O        7.32059076      -1.24281982      -8.61186689
C        6.78430739      -3.09909310      -7.29105973
C        5.94720373      -3.65677051      -6.31463301
C        5.96445607      -5.03165316      -6.08821763
O        5.13918991      -5.51736865      -5.11723529
C        6.78873818      -5.87536248      -6.82505525
C        7.60362245      -5.33313297      -7.81659750
C        7.59585325      -3.95817642      -8.05206805
O        8.41936453      -3.52035040      -9.05650388
H        2.39033002      -0.63544329      -1.16270789
H        3.82486340       0.78353027      -2.56310415
H        0.97775551       4.01158992      -2.18420769
H       -0.44653558       2.58306732      -0.77535979
H        3.70311310       4.24582261      -2.66116703
H        2.74773091       3.83960835      -4.13505543
H        4.80628507       5.48357821      -4.08837833
H        6.10818540       6.60578747      -5.81671016
H        7.22419368       2.80891677      -7.50689939
H        5.43152230       0.77030230      -4.87443765
H        6.05720539      -1.16530429      -5.65084843
H        5.25731231      -3.05747116      -5.73236305
H        5.23501185      -6.48428587      -5.07999533
H        6.80491242      -6.94720079      -6.65171701
H        8.24581173      -5.97805057      -8.41266127
H        8.23420542      -2.56328143      -9.20231627
C       -0.88132107      -0.88132107      -0.88132107
C       -1.98265814      -1.53211091      -0.33107346
C       -2.78359209      -2.34804691      -1.13592987
C       -2.49429882      -2.51322809      -2.49752209
C       -1.37997576      -1.84549569      -3.03485937
C       -0.57641991      -1.03336188      -2.23159441
C       -3.30749383      -3.41091645      -3.40745953
O       -4.47165142      -3.92506511      -2.74997873
C       -5.37760306      -4.57383995      -3.54875641
C       -5.02794178      -5.24843111      -4.72550942
C       -6.00579827      -5.89003820      -5.49188384
C       -7.33709826      -5.86481842      -5.08625039
Br      -8.65162163      -6.72910437      -6.13397416
C       -7.70297363      -5.21550715      -3.91125375
C       -6.72049088      -4.58201003      -3.13750533
C       -7.11638712      -3.91579282      -1.87649679
N       -8.36228916      -3.76447047      -1.55287461
N       -8.58811648      -3.15766137      -0.35285679
C       -9.89230476      -2.91053426       0.05163689
O      -10.89780057      -3.18991037      -0.60192688
C      -10.07616864      -2.30160440       1.40149903
C       -9.03965842      -1.62741708       2.06200927
C       -9.25256830      -1.10444468       3.33599244
O       -8.20505373      -0.47032299       3.93632016
C      -10.48525875      -1.22226011       3.96908791
C      -11.52935159      -1.86639223       3.30865684
C      -11.32828427      -2.39484364       2.03338303
O      -12.41735051      -2.99677932       1.45861182
H       -2.22176248      -1.41820475       0.72237261
H       -3.63175810      -2.85579276      -0.68394696
H       -1.12597981      -1.95954496      -4.08802835
H        0.28394845      -0.52892740      -2.66691258
H       -2.65960867      -4.24280075      -3.70769333
H       -3.61192867      -2.82519582      -4.28527021
H       -3.99949611      -5.31122374      -5.06752175
H       -5.71618707      -6.41085980      -6.40363617
H       -8.74270264      -5.20530403      -3.59200318
H       -6.30678273      -3.54781039      -1.22166912
H       -7.80206014      -3.00618203       0.26549265
H       -8.06816772      -1.47196554       1.60792905
H       -8.49528551      -0.13841714       4.80298134
H      -10.65513388      -0.81595830       4.96166353
H      -12.50485355      -1.95725588       3.78168699
H      -12.18314158      -3.21693626       0.52683758
C       -0.88132107       0.88132107       0.88132107
C       -0.43098321       1.27642604       2.13843326
C       -1.24274728       2.07468423       2.95013735
C       -2.50658392       2.49003744       2.50842764
C       -2.94196718       2.08322150       1.23514214
C       -2.13424478       1.28249500       0.42463642
C       -3.44046650       3.32644639       3.35895692
O       -2.81468076       3.75948237       4.57253213
C       -3.50304411       4.69082496       5.30633035
C       -4.89919206       4.80394975       5.29874051
C       -5.53550313       5.77840953       6.07380766
C       -4.78226063       6.64277638       6.86313007
Br      -5.65254840       7.96114914       7.90100262
C       -3.39541566       6.53561854       6.89870034
C       -2.75881291       5.55114392       6.13004941
C       -1.28514236       5.42916247       6.19437190
N       -0.55948797       6.30670422       6.81344205
N        0.78180931       6.06145164       6.81899231
C        1.63947322       6.97405891       7.41661643
O        1.28776977       8.02594343       7.95146418
C        3.08856291       6.61906809       7.44576884
C        3.63860682       5.66217994       6.58149312
C        4.99201598       5.34247122       6.67056530
O        5.46995198       4.39512972       5.81387882
C        5.82297307       5.96664586       7.59475816
C        5.29077526       6.93894721       8.43891503
C        3.93722441       7.26707528       8.35989401
O        3.50921266       8.24459165       9.22013902
H        0.54448085       0.96295156       2.49912391
H       -0.87672597       2.36244075       3.93233110
H       -3.92193594       2.38460176       0.86701543
H       -2.49245171       0.97540039      -0.55596058
H       -4.30959201       2.70244669       3.59806404
H       -3.74686464       4.20306093       2.77246912
H       -5.52620552       4.13737933       4.71465676
H       -6.62213303       5.85169173       6.05685828
H       -2.81004733       7.20645288       7.52350963
H       -0.82578118       4.56095034       5.68953073
H        1.10832763       5.16313025       6.48794690
H        3.05170400       5.16681429       5.81709391
H        6.42383644       4.28644205       5.96811569
H        6.87808756       5.72039093       7.66712528
H        5.92720735       7.44798230       9.15964749
H        2.57807746       8.46638401       8.98493371
C        0.88132107      -0.88132107       0.88132107
C        0.52854232      -2.20924500       1.10805519
C        1.32997848      -3.01345275       1.92413764
C        2.49331312      -2.49879524       2.51294064
C        2.83401500      -1.15678674       2.26952908
C        2.03254917      -0.35082226       1.45800477
C        3.37937571      -3.31461513       3.43187897
O        2.97212161      -4.68680810       3.48776556
C        3.83199866      -5.54509684       4.12310392
C        4.69748543      -5.15233493       5.15206196
C        5.54815315      -6.08298947       5.75657770
C        5.53717623      -7.41107369       5.33991715
Br       6.69675705      -8.65892505       6.15901806
C        4.67241854      -7.82559280       4.33172319
C        3.81184860      -6.89437881       3.73377883
C        2.87818768      -7.35065880       2.67983026
N        2.94750279      -8.54674506       2.18538639
N        2.01194783      -8.84679699       1.23988982
C        2.04162962     -10.08848704       0.62108547
O        2.87075063     -10.96986082       0.84902637
C        0.95445475     -10.38032963      -0.35851037
C        0.19396475      -9.36330493      -0.95220345
C       -0.83228004      -9.68984422      -1.83654364
O       -1.54780347      -8.66070863      -2.37384860
C       -1.11394743     -11.01273036      -2.16035198
C       -0.34509034     -12.02866266      -1.59648534
C        0.68444495     -11.71446004      -0.70916012
O        1.39417763     -12.77918776      -0.21784738
H       -0.37027605      -2.62556773       0.66230295
H        1.03042563      -4.04389158       2.09718061
H        3.72846860      -0.72659020       2.71849432
H        2.31242663       0.68662895       1.28609385
H        3.30757421      -2.87076519       4.43176334
H        4.41033026      -3.25403520       3.05802924
H        4.72367599      -4.13215332       5.52241230
H        6.21401362      -5.76063123       6.55603819
H        4.65953061      -8.86592798       4.01455124
H        2.12024831      -6.62909934       2.32691461
H        1.24881359      -8.19884080       1.09509513
H        0.38711491      -8.31310654      -0.76801725
H       -2.21120719      -9.02578638      -2.98385788
H       -1.91265827     -11.27120406      -2.84911714
H       -0.54124040     -13.06896690      -1.84730406
H        2.15767252     -12.42230336       0.29326439
