173
Properties=species:S:1:pos:R:3 pbc="F F F"
C        0.00000000       0.00000000       0.00000000
C        0.88193792       0.88193792      -0.88193792
C        2.16582373       1.22256774      -0.45539256
C        2.97213325       2.03047186      -1.26083313
C        2.48720032       2.49286868      -2.48830177
C        1.19874304       2.15076445      -2.91201328
C        0.39469709       1.34129912      -2.10583824
C        3.31177038       3.35564634      -3.35789807
N        4.52885773       3.67748980      -3.04768907
N        5.18466439       4.55476951      -3.91151109
C        6.64678307       4.51350367      -3.88373953
H        6.91871718       3.45991583      -3.73498086
N        7.16240440       4.91098327      -5.19676424
C        6.64634129       6.12618906      -5.67040912
C        7.36816351       6.87907637      -6.60329504
C        6.84169392       8.06504853      -7.12317591
C        5.57222547       8.49500893      -6.74135874
C        4.82054402       7.72839957      -5.85303047
C        5.35379080       6.54205077      -5.33307321
C        4.53861964       5.68138835      -4.44372147
O        3.36497453       5.99251493      -4.23435816
C        7.32300715       5.30598159      -2.75726642
C        8.72699247       5.26872077      -2.62802145
C        9.38097998       5.98789478      -1.62323658
C        8.63890238       6.74311753      -0.72087594
C        7.25101868       6.77789999      -0.80891605
C        6.59852735       6.06110896      -1.81729284
H        2.54603219       0.86896826       0.49943034
H        3.97068360       2.29967023      -0.92482221
H        0.81105064       2.51096922      -3.86187684
H       -0.60664549       1.07878983      -2.43796921
H        2.83503472       3.68557825      -4.29804742
H        8.17316042       4.87460630      -5.24621653
H        8.35213960       6.55303555      -6.92989864
H        7.42108398       8.64921699      -7.83401291
H        5.16082709       9.41507893      -7.14905110
H        3.81767248       8.04647123      -5.57713498
H        9.32854691       4.67345294      -3.31154451
H       10.46494933       5.94953597      -1.55311023
H        6.66334324       7.35525372      -0.09977894
H        5.51065959       6.09848812      -1.84759247
C        9.31083538       7.48584244       0.31375720
C        9.87357928       8.10787456       1.18026245
Br      10.78348855       9.11364788       2.58132816
C       -0.88193792      -0.88193792      -0.88193792
C       -0.50089833      -2.19799064      -1.14489506
C       -1.30626977      -3.00441305      -1.95275542
C       -2.48804736      -2.48741522      -2.49290819
C       -2.86611173      -1.16685793      -2.22855111
C       -2.06018216      -0.36265438      -1.41899791
C       -3.35585072      -3.31176127      -3.35770279
N       -3.08863188      -4.55510485      -3.61029989
N       -3.94217102      -5.21196969      -4.49680427
C       -3.98436234      -6.67036844      -4.38929549
H       -3.89543643      -6.89930476      -3.31887268
N       -5.30098734      -7.14502078      -4.82414379
C       -5.69557088      -6.66553520      -6.08183339
C       -6.62663703      -7.37941546      -6.84448242
C       -7.06817648      -6.88612742      -8.07561448
C       -6.60892600      -5.65629368      -8.54337345
C       -5.72154529      -4.90999537      -7.77043340
C       -5.28026190      -5.41003241      -6.53862047
C       -4.39308756      -4.59604297      -5.67459894
O       -4.11567997      -3.44863054      -6.02753711
C       -2.85645901      -7.43218951      -5.09760663
C       -2.79450292      -8.83727558      -4.99195620
C       -1.79026067      -9.56808078      -5.63376990
C       -0.82163208      -8.90284026      -6.37842351
C       -0.84332868      -7.51553984      -6.47896621
C       -1.85111906      -6.78617888      -5.83963122
H        0.41851414      -2.60341903      -0.73066521
H       -1.00547011      -4.02836987      -2.16133605
H       -3.77993292      -0.75448923      -2.64947455
H       -2.35668241       0.66360489      -1.21703604
H       -4.25717896      -2.80955681      -3.75192462
H       -5.39901136      -8.14978616      -4.74518573
H       -7.01287486      -8.33164322      -6.49055570
H       -7.77852816      -7.45989312      -8.66589260
H       -6.95569438      -5.27044903      -9.49881371
H       -5.38538513      -3.93628485      -8.11960871
H       -3.53109104      -9.37946532      -4.40298801
H       -1.77245083     -10.65113420      -5.54401050
H       -0.08262262      -6.98750562      -7.04824765
H       -1.82904690      -5.70096104      -5.92673224
C        0.21260859      -9.65397781      -7.04155142
C        1.07878515     -10.28305550      -7.59692104
Br       2.47931940     -11.30022093      -8.49490674
C       -0.88193792       0.88193792       0.88193792
C       -2.26579397       0.70533483       0.87265523
C       -3.07289868       1.51276350       1.67777605
C       -2.48895259       2.49268274       2.48673544
C       -1.10119125       2.66811753       2.49221199
C       -0.29574589       1.85844373       1.68764483
C       -3.31569267       3.36770445       3.34191766
N       -4.60302847       3.23312828       3.41787986
N       -5.28499855       4.16236321       4.20358323
C       -6.58947981       3.74047183       4.71407462
H       -6.49347775       2.67181140       4.94832472
N       -6.85823856       4.43629893       5.97561442
C       -6.70986027       5.82921716       5.90386203
C       -7.38871649       6.65468093       6.80713750
C       -7.20865045       8.04062840       6.78063952
C       -6.32160513       8.61493282       5.87205518
C       -5.59960163       7.80080437       5.00156806
C       -5.78563423       6.41275378       5.03052677
C       -4.97315376       5.53012919       4.16044652
O       -4.08523145       6.03512053       3.47149563
C       -7.76964720       3.87394100       3.74266696
C       -9.04941240       3.43412503       4.14019727
C      -10.15210988       3.55118990       3.28881156
C       -9.98859192       4.09532479       2.01897914
C       -8.73295242       4.51399743       1.59088488
C       -7.63153208       4.39997687       2.44542021
H       -2.72490211      -0.05222571       0.24289370
H       -4.15182767       1.37771258       1.66563579
H       -0.63900925       3.43174467       3.11314278
H        0.78229308       1.99882096       1.69358568
H       -2.76522327       4.12350715       3.92992997
H       -7.73960063       4.16224477       6.39213785
H       -8.07100695       6.22702013       7.53704671
H       -7.75605260       8.67149030       7.47677098
H       -6.17812777       9.69247239       5.85435696
H       -4.88449134       8.24435999       4.31242736
H       -9.20034511       2.99101862       5.12218064
H      -11.12912570       3.21366186       3.62480798
H       -8.59461249       4.92827402       0.59548939
H       -6.66087762       4.72332929       2.07253327
C      -11.12350136       4.21820992       1.14120935
C      -12.07398802       4.32112622       0.40607715
Br     -13.61084455       4.48753316      -0.78256944
C        0.88193792      -0.88193792       0.88193792
C        0.33724330      -1.49714568       2.00939504
C        1.14380598      -2.30244203       2.81719023
C        2.49126275      -2.48598738       2.49112063
C        3.03446274      -1.86619287       1.36086516
C        2.22572070      -1.06269322       0.55342053
C        3.37159451      -3.32381590       3.32990436
N        2.92568512      -3.96102603       4.36732546
N        3.86473162      -4.66348462       5.12272875
C        3.34542475      -5.76454297       5.93405856
H        2.54426377      -6.22713294       5.34221717
N        4.39551649      -6.77307671       6.10155871
C        5.61328366      -6.25894818       6.57070763
C        6.51210765      -7.09099514       7.24743212
C        7.75148537      -6.60486232       7.67357067
C        8.12067326      -5.28949290       7.39842698
C        7.25735254      -4.46476619       6.67985533
C        6.01550157      -4.95609266       6.25732055
C        5.11841347      -4.11340948       5.43190651
O        5.51889762      -3.00725539       5.06569461
C        2.72738850      -5.37541765       7.28344901
C        2.15265963      -6.37345790       8.09761717
C        1.59189947      -6.06072198       9.33948989
C        1.58236306      -4.74102828       9.77950451
C        2.11935211      -3.73245696       8.98602566
C        2.68369565      -4.04759570       7.74563781
H       -0.70841534      -1.35464773       2.26933771
H        0.71938406      -2.77710685       3.69868512
H        4.08257412      -1.99807050       1.10325209
H        2.65193413      -0.58153706      -0.32335764
H        4.42403476      -3.39278466       3.00184096
H        4.08385910      -7.57591577       6.63420838
H        6.25320048      -8.12567672       7.45619660
H        8.43280470      -7.25762961       8.21387957
H        9.08643791      -4.91260731       7.72591190
H        7.55612369      -3.44731714       6.43783786
H        2.13384978      -7.41040617       7.76928841
H        1.16508807      -6.85129639       9.95121106
H        2.10411172      -2.69720019       9.31706398
H        3.08115665      -3.23169471       7.14388881
C        1.00667283      -4.41717350      11.05907430
C        0.52453227      -4.14594513      12.13071399
Br      -0.25504825      -3.70739178      13.86346475
