186
Properties=species:S:1:pos:R:3 pbc="F F F"
C        1.79184195       1.79184195      -1.79184195
C        3.07572775       2.13247177      -1.36529659
C        3.88203727       2.94037589      -2.17073715
C        3.39710434       3.40277270      -3.39820580
C        2.10864707       3.06066847      -3.82191730
C        1.30460112       2.25120314      -3.01574226
C        4.22167440       4.26555036      -4.26780209
N        5.43876176       4.58739383      -3.95759310
N        6.09456842       5.46467353      -4.82141511
C        7.55668710       5.42340769      -4.79364356
H        7.82862120       4.36981985      -4.64488489
N        8.07230842       5.82088729      -6.10666827
C        7.55624532       7.03609309      -6.58031314
C        8.27806753       7.78898039      -7.51319906
C        7.75159794       8.97495256      -8.03307994
C        6.48212949       9.40491296      -7.65126276
C        5.73044804       8.63830360      -6.76293449
C        6.26369483       7.45195479      -6.24297724
C        5.44852367       6.59129238      -5.35362549
O        4.27487855       6.90241896      -5.14426218
C        8.23291117       6.21588561      -3.66717045
C        9.63689649       6.17862480      -3.53792548
C       10.29088400       6.89779881      -2.53314061
C        9.54880640       7.65302155      -1.63077997
Br      10.43071924       8.62784886      -0.27282279
C        8.16092271       7.68780402      -1.71882008
C        7.50843138       6.97101299      -2.72719687
H        3.45593621       1.77887228      -0.41047368
H        4.88058762       3.20957425      -1.83472623
H        1.72095466       3.42087324      -4.77178087
H        0.30325853       1.98869386      -3.34787324
H        3.74493874       4.59548227      -5.20795144
H        9.08306445       5.78451032      -6.15612056
H        9.26204363       7.46293957      -7.83980266
H        8.33098800       9.55912101      -8.74391694
H        6.07073111      10.32498296      -8.05895512
H        4.72757650       8.95637525      -6.48703900
H       10.23845094       5.58335697      -4.22144854
H       11.37485336       6.85943999      -2.46301425
H        7.57324726       8.26515775      -1.00968296
H        6.42056361       7.00839214      -2.75749649
C       -1.79184195      -1.79184195      -1.79184195
C       -1.20953855      -2.57575269      -2.78820487
C       -2.01584376      -3.38119605      -3.59611050
C       -3.40060932      -3.39593238      -3.40154114
C       -3.98121046      -2.60732674      -2.40269563
C       -3.17290954      -1.80391158      -1.59472539
C       -4.28039363      -4.22971536      -4.24491786
N       -3.80699169      -5.01599920      -5.16075780
N       -4.73834169      -5.70109703      -5.94121833
C       -4.26463262      -6.92895085      -6.58015487
H       -3.57990590      -7.40070587      -5.86271418
N       -5.39637870      -7.84234193      -6.76114335
C       -6.49965467      -7.26564376      -7.40735312
C       -7.41292704      -8.07435041      -8.09296954
C       -8.54481314      -7.51858110      -8.69623620
C       -8.79445663      -6.15143065      -8.59241793
C       -7.92118589      -5.34196818      -7.86853206
C       -6.78706368      -5.90350736      -7.26805582
C       -5.88887121      -5.06800527      -6.43656505
O       -6.20102477      -3.89491649      -6.22561843
C       -3.47933542      -6.75045629      -7.88617551
C       -2.93936244      -7.88211037      -8.53197396
C       -2.22949788      -7.76195341      -9.73037213
C       -2.03418491      -6.50494782     -10.29347519
Br      -1.07669023      -6.34007548     -11.91462518
C       -2.53366123      -5.36879992      -9.66508565
C       -3.24718616      -5.49114506      -8.46831002
H       -0.13424662      -2.56500304      -2.94603252
H       -1.56131654      -3.98768688      -4.37588468
H       -5.05755130      -2.60758243      -2.24847504
H       -3.62804567      -1.19133473      -0.82044522
H       -5.36108099      -4.15968193      -4.02760954
H       -5.12300594      -8.72471165      -7.17597773
H       -7.24846630      -9.14585831      -8.17046125
H       -9.23680511      -8.15638174      -9.24083910
H       -9.67711547      -5.71976575      -9.05778797
H       -8.13019696      -4.28001590      -7.76077790
H       -3.06510773      -8.87425492      -8.10389379
H       -1.83315473      -8.65199406     -10.21215881
H       -2.37414826      -4.38194612     -10.09199359
H       -3.61077618      -4.57999355      -7.99568252
C       -1.79184195       1.79184195       1.79184195
C       -3.06174511       2.16274843       1.34900256
C       -3.86801117       2.97066729       2.15447185
C       -3.39702463       3.40275162       3.39830659
C       -2.12252672       3.03033930       3.83836682
C       -1.31853778       2.22091298       3.03209576
C       -4.22172830       4.26472808       4.26857047
N       -5.42725883       4.61362308       3.94286677
N       -6.08289466       5.48718727       4.81057512
C       -7.54478379       5.47250753       4.75644702
H       -7.83244674       4.42670855       4.58417065
N       -8.07670286       5.85604668       6.06711445
C       -7.54795079       7.05336260       6.57133815
C       -8.27299417       7.80254052       7.50471229
C       -7.73517623       8.96963584       8.05481837
C       -6.45175608       9.38350526       7.70304387
C       -5.69789831       8.61929580       6.81449201
C       -6.24249658       7.45194621       6.26418407
C       -5.42679933       6.59259832       5.37404389
O       -4.24433238       6.88635783       5.19086948
C       -8.18680726       6.29654797       3.63261200
C       -9.58870057       6.28661352       3.47813268
C      -10.21195045       7.03484321       2.47502976
C       -9.44076748       7.79240710       1.59943335
Br     -10.28108899       8.80646727       0.24383462
C       -8.05427904       7.80087352       1.71239425
C       -7.43254718       7.05498979       2.71910426
H       -3.43099727       1.83277983       0.38150507
H       -4.85553551       3.26348690       1.80586569
H       -1.74558869       3.36686452       4.80115557
H       -0.32803560       1.93479855       3.37699148
H       -3.75613219       4.56957153       5.22266874
H       -9.08866263       5.83684766       6.09818504
H       -9.26820461       7.48843239       7.80814886
H       -8.31682774       9.55149871       8.76569950
H       -6.03163264      10.28880115       8.13423539
H       -4.68484274       8.92421130       6.56193672
H      -10.21269616       5.69028330       4.14027698
H      -11.29500192       7.01706526       2.38524042
H       -7.44401512       8.37999185       1.02408100
H       -6.34490513       7.07241694       2.76913018
C        1.79184195      -1.79184195       1.79184195
C        1.21621621      -2.82383983       2.53344006
C        2.02211925      -3.62959923       3.34143183
C        3.39961524      -3.39623632       3.40223127
C        3.97311365      -2.35948747       2.65863172
C        3.16565129      -1.55599216       1.84990307
C        4.27660764      -4.22471416       4.25370505
N        3.81953010      -5.22766825       4.93655034
N        4.72918914      -5.89237632       5.75909160
C        4.39462762      -7.27386505       6.10524567
H        3.92540471      -7.70644699       5.21147425
N        5.63236742      -8.02048240       6.34701416
C        6.49993519      -7.40885008       7.26386628
C        7.42907180      -8.17912502       7.97205018
C        8.33481962      -7.57561892       8.84919190
C        8.34437330      -6.19057641       9.00335550
C        7.45981785      -5.40647039       8.26539789
C        6.55252058      -6.01643126       7.38967501
C        5.65551396      -5.19126871       6.54665886
O        5.77752409      -3.96563357       6.57840203
C        3.39920750      -7.45857786       7.25818187
C        2.98172446      -8.75803625       7.61368606
C        2.08668500      -8.96826014       8.66687827
C        1.58188195      -7.87978870       9.37093728
Br       0.37338555      -8.16148377      10.79652157
C        1.95654512      -6.58534165       9.02566003
C        2.85528936      -6.37697731       7.97437456
H        0.14566204      -3.00695019       2.49266994
H        1.57150718      -4.43026641       3.92311451
H        5.04222371      -2.16668031       2.70470474
H        3.61490492      -0.75032040       1.27460030
H        5.34681653      -3.95148813       4.25006780
H        5.46385809      -8.99491390       6.56492334
H        7.45248012      -9.25916822       7.85313752
H        9.03954073      -8.18815012       9.40633509
H        9.05177810      -5.72071421       9.68217688
H        7.48605815      -4.32337145       8.36156115
H        3.35005432      -9.62449345       7.06870868
H        1.78987093      -9.98117753       8.92625914
H        1.55656017      -5.72898592       9.56254187
H        3.11504481      -5.35024304       7.72116440
C       -0.00445707       0.01189536      -1.78238275
H       -0.66409135       0.67374010      -2.43557963
H        0.65740317      -0.63156657      -2.45157240
C       -0.90989263      -0.90692880      -0.91072765
C        0.90977584       0.90977584      -0.90977584
C       -0.00465871       1.77757030       0.00794375
H       -0.66225468       2.44313916      -0.64384735
H        0.64322798       2.43503045       0.67728295
C       -1.78241447       0.00034974      -0.00472694
H       -2.45427497      -0.65498947       0.64260836
H       -2.43311707       0.67328779      -0.65473579
C       -0.91132561       0.90220522       0.91563759
C       -0.01476271      -0.02253852       1.78660255
H       -0.67934791      -0.69751639       2.42135241
H        0.63392994       0.61504881       2.47327442
C        0.01484550      -1.77751727      -0.01636693
H        0.67870853      -2.42144646      -0.68295456
H       -0.62264859      -2.45592969       0.64226336
C        1.78714474       0.01002794       0.00389507
H        2.44202412       0.67113390       0.66197326
H        2.45385902      -0.65136977      -0.64189061
C        0.91606151      -0.90478549       0.90901405
