197
Properties=species:S:1:pos:R:3 pbc="F F F"
C        0.00000000       0.00000000       0.00000000
C        0.88181401       0.88181401      -0.88181401
C        1.07195501       2.22025829      -0.55005232
C        1.88204859       3.02375174      -1.35740726
C        2.51653679       2.49615733      -2.49293464
C        2.29841304       1.15198572      -2.81873035
C        1.48859165       0.34396159      -2.01391495
C        3.33535600       3.39848669      -3.31470172
C        4.41822543       3.08668553      -4.03870507
N        5.02836495       1.86820809      -4.20681251
C        6.08876255       2.12035415      -4.92974914
C        7.00362668       1.01683935      -5.33246519
C        8.37746439       1.16309557      -5.54280077
C        9.16388485       0.06515499      -5.91058160
C        8.59071511      -1.19658476      -6.04818774
C        7.22886109      -1.35632321      -5.81225012
Br       6.44494837      -3.07015360      -5.97298137
C        6.43757476      -0.26379848      -5.45587810
N        6.23142342       3.43241101      -5.29388102
C        7.28133873       4.12946470      -6.03610535
C        8.29194345       4.75594104      -5.06703343
C        9.45799568       5.39080271      -5.73325176
N        9.90221334       6.66805982      -5.42778158
C       10.96503158       6.86930082      -6.31454523
C       11.77002918       7.97424433      -6.49079322
C       12.80321391       7.87449315      -7.42258562
C       12.99927547       6.68089344      -8.14010828
C       12.16825511       5.57046877      -7.93265283
C       11.14427007       5.66616930      -7.00440571
N       10.22644135       4.73387835      -6.64599525
C        5.18128862       4.13460534      -4.76535006
O        4.90066222       5.31707666      -4.83943930
H        0.60151536       2.64904432       0.33012108
H        2.02540611       4.06736861      -1.08361069
H        2.75969199       0.71688368      -3.70253128
H        1.34375706      -0.69856345      -2.28247394
H        3.03007007       4.44365363      -3.28802725
H        8.88735117       2.11274922      -5.41874165
H       10.22887366       0.20901807      -6.08400854
H        9.21343867      -2.04035504      -6.33095288
H        5.37490219      -0.40502909      -5.27223805
H        6.80959675       4.92499932      -6.62675123
H        7.74226966       3.43858669      -6.74604624
H        8.65644326       4.00723344      -4.35337184
H        7.77490589       5.50478440      -4.45282514
H        9.18672695       7.37919188      -5.45828636
H       11.61050660       8.87269581      -5.91164289
H       13.46411029       8.71851737      -7.58698248
H       13.80736523       6.61232295      -8.86091014
H       12.31910338       4.64935281      -8.48312664
C       -0.88181401      -0.88181401      -0.88181401
C       -0.98582014      -0.61283625      -2.24360922
C       -1.79119601      -1.42362995      -3.04838163
C       -2.48821103      -2.51358136      -2.50383637
C       -2.38374155      -2.75653417      -1.12885339
C       -1.57907485      -1.94796150      -0.31943184
C       -3.33792281      -3.31283077      -3.39779083
C       -3.62359289      -4.61791485      -3.30210829
N       -3.21437151      -5.52903717      -2.35997687
C       -3.69514162      -6.67446582      -2.76925839
C       -3.46283809      -7.91335545      -1.97673768
C       -3.36499194      -9.19640532      -2.52196347
C       -3.13446771     -10.30543984      -1.69971388
C       -2.97433189     -10.14198446      -0.32600174
C       -3.04141467      -8.86449099       0.22111766
Br      -2.80144170      -8.62874311       2.08240867
C       -3.28167126      -7.75622459      -0.59175854
N       -4.43408000      -6.60396944      -3.91966601
C       -5.08526894      -7.63682649      -4.72481336
C       -4.16773975      -8.07317652      -5.87400165
C       -4.70027145      -9.20116965      -6.68060904
N       -4.74491768      -9.18694815      -8.06618891
C       -5.35671453     -10.40246250      -8.38970061
C       -5.69189108     -10.92116431      -9.62201134
C       -6.25019703     -12.19909712      -9.65099854
C       -6.45044720     -12.91356669      -8.45626330
C       -6.09147824     -12.36203171      -7.21786676
C       -5.53275872     -11.09465131      -7.18743505
N       -5.11822336     -10.36938898      -6.11870261
C       -4.44981507      -5.29852309      -4.33290587
O       -4.98573649      -4.77742844      -5.29401325
H       -0.44698744       0.21748527      -2.69093642
H       -1.85976901      -1.20434401      -4.11227238
H       -2.92599158      -3.58131506      -0.67180031
H       -1.50647663      -2.16386721       0.74267629
H       -3.74199298      -2.76910474      -4.25065323
H       -3.44757718      -9.38380743      -3.58745743
H       -3.07834416     -11.29604857      -2.14750753
H       -2.79276578     -11.01099849       0.29972775
H       -3.32883613      -6.76362106      -0.14965395
H       -6.00676925      -7.21193434      -5.14264372
H       -5.38325259      -8.46554007      -4.07810992
H       -3.17672221      -8.34755514      -5.49277119
H       -3.99012161      -7.21156450      -6.53082932
H       -5.18909174      -8.37217334      -8.46294011
H       -5.50862233     -10.35932262     -10.52690034
H       -6.52194118     -12.64714807     -10.60052089
H       -6.88305594     -13.90805767      -8.48948472
H       -6.24317582     -12.91188645      -6.29652055
C       -0.88181401       0.88181401       0.88181401
C       -0.30171160       1.66444529       1.87610872
C       -1.11118973       2.47269067       2.67932718
C       -2.50132698       2.51494029       2.48936149
C       -3.06675421       1.70708955       1.49528536
C       -2.26084408       0.89661530       0.68900881
C       -3.30007391       3.36574808       3.38272243
C       -4.44607210       3.99841633       3.09912759
N       -5.16402149       4.01054379       1.92882027
C       -6.14721698       4.84517691       2.14647195
C       -7.15977376       5.10655063       1.08660684
C       -7.84432449       6.31415091       0.92488533
C       -8.77423852       6.47432434      -0.10894142
C       -9.01252301       5.43791344      -1.00811835
C       -8.31383846       4.24249807      -0.87154854
Br      -8.61238705       2.83711755      -2.10172846
C       -7.39350914       4.07282626       0.16331898
N       -6.16714787       5.38687528       3.40369229
C       -7.04243909       6.38174684       4.02272285
C       -6.41765219       7.77876974       3.91849599
C       -7.28862963       8.87190412       4.42151640
N       -6.84799363       9.84664573       5.30341537
C       -7.98991652      10.61896030       5.54000082
C       -8.16100383      11.71235366       6.36170924
C       -9.41254291      12.32822962       6.35952016
C      -10.44395880      11.83715641       5.53916198
C      -10.23671818      10.72721254       4.70744599
C       -8.99300582      10.11686827       4.70497099
N       -8.57068901       9.04154809       3.99407785
C       -5.09982941       4.88320576       4.09820886
O       -4.73385752       5.08077338       5.24254728
H        0.77280943       1.65826061       2.03498741
H       -0.64366475       3.08272272       3.44999793
H       -4.14258017       1.70176001       1.33476677
H       -2.72289031       0.28713533      -0.08235810
H       -2.87313536       3.51508137       4.37353422
H       -7.67779059       7.16874146       1.57231000
H       -9.30574209       7.41960106      -0.20344289
H       -9.73448155       5.57710480      -1.80754982
H       -6.85322587       3.13339011       0.25549517
H       -7.16035787       6.11926785       5.08172158
H       -8.03476107       6.32286782       3.56927369
H       -6.13681947       7.99877928       2.88144978
H       -5.47169536       7.78512453       4.47569554
H       -6.40089364       9.48884741       6.13446414
H       -7.34562491      12.08210037       6.96712001
H       -9.58744511      13.19576590       6.98639914
H      -11.41324986      12.32473122       5.54261724
H      -11.02964251      10.34872668       4.07321363
C        0.88181401      -0.88181401       0.88181401
C        1.70614334      -1.83902083       0.29710145
C        2.51421993      -2.64227630       1.10671136
C        2.51460622      -2.48901082       2.50201172
C        1.66546868      -1.53229016       3.07137027
C        0.85498777      -0.72613432       2.26534610
C        3.36794123      -3.38093020       3.29967298
C        3.96222832      -3.11190482       4.46948288
N        3.92368049      -1.96157490       5.21813016
C        4.73767016      -2.18369493       6.21750075
C        4.94340934      -1.14513605       7.26438583
C        6.12769734      -0.97021761       7.98544579
C        6.23519526       0.04189098       8.94631716
C        5.16886629       0.90661600       9.18006780
C        3.99644573       0.75753588       8.44587815
Br       2.55084921       1.94165683       8.73858377
C        3.87923150      -0.25612317       7.49429971
N        5.31253134      -3.42626080       6.21892331
C        6.30037146      -4.04231919       7.10421813
C        7.71005679      -3.88436648       6.52049465
C        8.79305882      -4.38178779       7.40720354
N        9.80263416      -5.22538993       6.97003064
C       10.55067445      -5.47237694       8.12582625
C       11.66104249      -6.26928107       8.30474318
C       12.24339160      -6.28476379       9.57213729
C       11.70321650      -5.50590781      10.61115288
C       10.57699259      -4.69846011      10.39592401
C        9.99983825      -4.67838280       9.13662403
N        8.91716371      -3.98492823       8.70422300
C        4.85621226      -4.10464224       5.12038953
O        5.09431292      -5.23302846       4.72983681
H        1.73262481      -1.96882451      -0.78101073
H        3.15704153      -3.38362528       0.63571859
H        1.62740234      -1.40118698       4.15051763
H        0.21284356       0.01607339       2.73089738
H        3.55528964      -4.35552005       2.85094126
H        7.00361904      -1.59011335       7.82510965
H        7.16320819       0.14686337       9.50555545
H        5.26723806       1.68957994       9.92637840
H        2.95722363      -0.35837985       6.92650767
H        6.06367237      -5.11068259       7.18699235
H        6.20305777      -3.61764486       8.10619995
H        7.90921096      -2.83464490       6.27319268
H        7.75647243      -4.41535970       5.56068330
H        9.47941566      -6.05316728       6.49162224
H       12.06845090      -6.84240076       7.48399363
H       13.12268278      -6.89304144       9.75388593
H       12.16495749      -5.52276633      11.59287450
H       10.16066265      -4.09616144      11.19475874
