105
Properties=species:S:1:pos:R:3 pbc="F F F"
C        0.00000000       0.00000000       0.00000000
C        0.88154455       0.88154455      -0.88154455
C        2.25295859       0.63971366      -0.94953835
C        3.06423485       1.44405609      -1.75755123
C        2.49943118       2.48400719      -2.50873768
C        1.12105402       2.72796915      -2.41517989
C        0.31179733       1.92556859      -1.60627086
C        3.30335149       3.37186124      -3.39484337
O        2.90485459       4.50201360      -3.65299863
C        4.56025948       2.83109261      -3.98279180
C        5.32974263       3.62863414      -4.73904027
C        6.53299973       3.16132208      -5.34535690
S        7.19238963       4.03624902      -6.68326583
C        8.50372220       2.95431854      -6.85384561
C        8.45491922       1.96592993      -5.90777971
C        7.33830091       2.07268779      -5.04219436
H        2.70045661      -0.16610684      -0.37259189
H        4.13311514       1.25162963      -1.76360688
H        0.67079012       3.54523192      -2.97688560
H       -0.75512743       2.12611814      -1.54953850
H        4.80079671       1.79007064      -3.81928736
H        5.02725789       4.65981288      -4.92060816
H        9.24035537       3.10497220      -7.63071329
H        7.13745783       1.38893431      -4.22734103
C        9.42408731       0.90938632      -5.77350830
C       10.23576558       0.02453104      -5.66105600
Br      11.54818071      -1.40620509      -5.47923013
C       -0.88154455      -0.88154455      -0.88154455
C       -0.86453148      -2.26536319      -0.71231593
C       -1.67217227      -3.07682145      -1.51684845
C       -2.50786232      -2.50074742      -2.48356631
C       -2.49986525      -1.10846810      -2.65586971
C       -1.69133242      -0.29887306      -1.85343130
C       -3.39834939      -3.30481301      -3.36689370
O       -3.73871797      -2.86273881      -4.45841003
C       -3.88931869      -4.61864842      -2.86617679
C       -4.64714894      -5.38594044      -3.66432766
C       -5.16327238      -6.64345981      -3.23294652
S       -6.51108758      -7.32894191      -4.07187500
C       -6.55327786      -8.70229924      -3.05630925
C       -5.55809966      -8.65312163      -2.11740757
C       -4.75909921      -7.48652699      -2.20755687
H       -0.22157782      -2.72184759       0.03648374
H       -1.61189164      -4.15299304      -1.38346697
H       -3.12839574      -0.64779067      -3.41672122
H       -1.70142709       0.77856028      -1.99766241
H       -3.65646846      -4.90377752      -1.84990873
H       -4.90069908      -5.04054909      -4.66643077
H       -7.29779066      -9.47169932      -3.20655089
H       -3.91944381      -7.27708182      -1.55720753
C       -5.31555316      -9.66720302      -1.12422575
C       -5.11242047     -10.51649618      -0.29243597
Br      -4.78397209     -11.88973140       1.05249775
C       -0.88154455       0.88154455       0.88154455
C       -0.81449711       2.26875708       0.75895642
C       -1.62191218       3.08031107       1.56361892
C       -2.50728468       2.50153521       2.48335616
C       -2.54972237       1.10494248       2.60953821
C       -1.74142585       0.29515287       1.80705806
C       -3.40030940       3.30592289       3.36382381
O       -3.79072636       2.84056211       4.42857834
C       -3.83195140       4.65072603       2.89146646
C       -4.59081561       5.41671317       3.68988826
C       -5.05169386       6.70386838       3.28411647
S       -6.40389381       7.40639848       4.10161220
C       -6.36824193       8.81230304       3.13134138
C       -5.34455262       8.76030926       2.22376698
C       -4.58685754       7.56555399       2.30077153
H       -0.13272603       2.72746779       0.04674785
H       -1.52271198       4.15761798       1.46802169
H       -3.21762018       0.64117765       3.33410981
H       -1.79089412      -0.78542796       1.91506305
H       -3.55647465       4.96046005       1.89322000
H       -4.88843539       5.04792283       4.67132072
H       -7.09223824       9.60076002       3.28304259
H       -3.73324558       7.34935758       1.67113000
C       -5.03674753       9.79715502       1.27307939
C       -4.77896077      10.66551334       0.47687852
Br      -4.36214138      12.06957529      -0.81051094
C        0.88154455      -0.88154455       0.88154455
C        1.20073119      -0.46744699       2.17403243
C        2.00684251      -1.27309349       2.98590617
C        2.48339199      -2.50138912       2.50739494
C        2.17030102      -2.89590574       1.19799630
C        1.36694219      -2.08969888       0.38699571
C        3.33811022      -3.41076852       3.32117736
O        4.09553551      -4.19852422       2.76580707
C        3.20730387      -3.36291799       4.80392204
C        4.00494959      -4.13206951       5.56039794
C        3.91182327      -4.14443160       6.98342384
S        4.57326101      -5.48327877       7.85536470
C        4.10582754      -4.83889428       9.36716453
C        3.48212483      -3.62943077       9.21707327
C        3.36598119      -3.22222560       7.86497627
H        0.83400956       0.48254455       2.55547666
H        2.26506187      -0.90773454       3.97555523
H        2.55010336      -3.83791684       0.80488744
H        1.13052603      -2.41347460      -0.62347141
H        2.43853142      -2.73698550       5.23463778
H        4.73534569      -4.78686487       5.08546838
H        4.31917068      -5.37600999      10.28086019
H        2.91164523      -2.29123128       7.55085665
C        2.98357636      -2.82270637      10.30069920
C        2.56604202      -2.14707468      11.20823592
Br       1.89092431      -1.05463538      12.67564604
