121
Properties=species:S:1:pos:R:3 pbc="F F F"
C        0.00000000       0.00000000       0.00000000
O        5.17466353       4.31239491      -1.56499043
C        5.50623895       3.50211210      -2.41376554
O        4.72864814       2.97291900      -3.38725488
C        3.35694318       3.39061293      -3.37093297
C        2.50942160       2.50466604      -2.48610118
C        2.81009712       1.14527718      -2.30642771
C        2.00468957       0.33823575      -1.49955787
C        0.88172436       0.88172436      -0.88172436
C        0.55483388       2.22323138      -1.06571187
C        1.36514110       3.03066562      -1.86794734
C        6.85256256       2.91598273      -2.54580379
C        7.79420716       3.20954854      -1.63889224
C        9.09874403       2.65573656      -1.74157418
C       10.18981616       2.84855506      -0.90177636
C       11.27300055       2.09187899      -1.41145615
C       10.79693766       1.46973083      -2.53778307
O        9.49786842       1.79919813      -2.74491330
H        2.98362802       3.31213093      -4.39835788
H        3.27526956       4.44537913      -3.08022209
H        3.68012311       0.70490334      -2.79011495
H        2.26257728      -0.70792925      -1.36201693
H       -0.32413172       2.65032675      -0.58957119
H        1.09964603       4.07751652      -2.00143294
H        7.03031744       2.25336062      -3.38486541
H        7.57802883       3.87485069      -0.80649440
H       10.19607585       3.47154513      -0.01726671
H       12.27137386       2.01435315      -1.00482511
C       11.55907502       0.59089167      -3.38654004
C       12.19736506      -0.14513612      -4.09737400
Br      13.22942607      -1.33523080      -5.24673239
O       -5.21811369      -4.25431146      -1.57962373
C       -5.52302417      -3.45267592      -2.44641651
O       -4.72161113      -2.95170317      -3.41550772
C       -3.35726465      -3.39083025      -3.37039417
C       -2.50971548      -2.50429058      -2.48618276
C       -2.79121240      -1.13756927      -2.33302035
C       -1.98580170      -0.33050464      -1.52617685
C       -0.88172436      -0.88172436      -0.88172436
C       -0.57366181      -2.23105482      -1.03906051
C       -1.38405093      -3.03835941      -1.84134372
C       -6.85743579      -2.84742921      -2.60948409
C       -7.81799624      -3.11130283      -1.71334887
C       -9.11162050      -2.53855526      -1.84587901
C      -10.21887598      -2.70041626      -1.02085534
C      -11.28145839      -1.93494922      -1.55992807
C      -10.77756495      -1.33872102      -2.68816559
O       -9.48085856      -1.69209883      -2.86902246
H       -2.96644617      -3.33489785      -4.39277280
H       -3.29727003      -4.44192814      -3.06167261
H       -3.64621336      -0.69129166      -2.83763638
H       -2.22891139       0.72171258      -1.40946615
H        0.29061091      -2.66432136      -0.54205577
H       -1.13341137      -4.09131778      -1.95386635
H       -7.01110470      -2.19570462      -3.46173415
H       -7.62585110      -3.76642517      -0.86709764
H      -10.24925665      -3.30885987      -0.12677117
H      -12.28478671      -1.83500549      -1.17075992
C      -11.51181973      -0.46170241      -3.56298459
C      -12.12675810       0.27280067      -4.29564551
Br     -13.12106144       1.46043003      -5.48029625
O       -3.11255415       2.15077705       5.78871768
C       -2.60236966       3.23867220       5.58107474
O       -2.67243862       3.97136552       4.44501789
C       -3.39219092       3.36092009       3.36537807
C       -2.49683185       2.48967757       2.51367940
C       -1.13431498       2.78246975       2.34501728
C       -0.32691762       1.97616515       1.53940042
C       -0.88172436       0.88172436       0.88172436
C       -2.23640172       0.58802628       1.01934914
C       -3.04124864       1.39181286       1.83069255
C       -1.77898759       3.98706212       6.54829937
C       -1.47901896       3.43285757       7.73077142
C       -0.68488028       4.13171353       8.67946096
C       -0.28015399       3.71682950       9.94316409
C        0.49465579       4.75431257      10.51667891
C        0.53060354       5.75561531       9.57943980
O       -0.17099739       5.39441205       8.47657041
H       -3.78333806       4.17118300       2.73959576
H       -4.25729648       2.80125618       3.74231812
H       -0.68891623       3.63983174       2.84639344
H        0.72815665       2.21159936       1.43322225
H       -2.67484039      -0.26235148       0.50327731
H       -4.09743536       1.14984627       1.93131387
H       -1.43731198       4.97367916       6.25755232
H       -1.83528872       2.43784351       7.98624169
H       -0.52302761       2.76510456      10.39675552
H        0.96421085       4.76467823      11.49008474
C        1.21232680       7.01453200       9.73430153
C        1.78327002       8.06887474       9.86399823
Br       2.70643693       9.77365776      10.07370683
O        2.40998322      -2.79256643       5.84949923
C        2.20353761      -3.88023415       5.33834484
O        2.64169409      -4.31390621       4.13322171
C        3.39004678      -3.35623428       3.37220802
C        2.49216205      -2.49376478       2.51426199
C        1.28414650      -2.98398177       1.99367375
C        0.47667066      -2.17803028       1.18778224
C        0.88172436      -0.88172436       0.88172436
C        2.08767546      -0.38509808       1.37100359
C        2.89110296      -1.19038829       2.18226280
C        1.40738425      -4.96357708       5.94338776
C        0.78076020      -4.75300967       7.10887807
C        0.00485386      -5.77945199       7.71174892
C       -0.70555627      -5.73955005       8.90615380
C       -1.31871344      -7.00244104       9.09260809
C       -0.95790720      -7.75718053       8.00517823
O       -0.16675472      -7.03620851       7.17252606
H        4.06021042      -3.92033273       2.71357367
H        4.02407587      -2.74773640       4.02905851
H        0.95903622      -3.99833456       2.21777064
H       -0.46125140      -2.57145395       0.80646242
H        2.41036276       0.62460167       1.13000513
H        3.82963408      -0.78926104       2.55970038
H        1.35463828      -5.90498589       5.40891929
H        0.85200801      -3.79298860       7.61437731
H       -0.76917938      -4.88606983       9.56799724
H       -1.94293228      -7.31627492       9.91720948
C       -1.35610523      -9.12115073       7.77146124
C       -1.68959608     -10.26347577       7.57572326
Br      -2.22882258     -12.11051874       7.25923150
