150
Properties=species:S:1:pos:R:3 pbc="F F F"
O        2.24995738       5.00720097      -7.25262749
C        1.26107044       4.56189965      -6.69403683
C        1.26481695       3.80194080      -5.43169053
C        2.39699174       3.73238575      -4.71687712
C        2.43864877       3.03585180      -3.47947888
C        3.48694190       2.95650738      -2.57045560
C        3.06308598       2.15570424      -1.48254203
C        1.77746245       1.77746245      -1.77746245
O        1.39324079       2.29828612      -2.96950185
O       -0.02271188       4.68020145      -7.11700137
C       -0.17963712       5.54870404      -8.24099577
C       -0.05115262       7.02274684      -7.85782859
O        0.03302359       7.39148941      -6.68614944
C       -0.05568557       8.04894359      -8.94406961
C        0.19739075       9.38505841      -8.59641634
C        0.18571220      10.38795516      -9.56953809
C       -0.08090006      10.05734776     -10.89526520
C       -0.33220387       8.73437877     -11.25606775
C       -0.31980996       7.72887719     -10.28221442
H        0.33541494       3.34591038      -5.11443773
H        3.30214915       4.22652475      -5.06234632
H        4.45125184       3.43519792      -2.68356735
H        3.62669089       1.89220842      -0.59910097
H       -1.19163917       5.38428249      -8.62458131
H        0.53871937       5.28404660      -9.02492992
H        0.40493894       9.65321618      -7.56120927
H        0.38281622      11.41710216      -9.27998295
H       -0.54192944       8.47614382     -12.29151060
H       -0.52748750       6.71126398     -10.60003760
C       -0.10166176      11.08866795     -11.90002767
C       -0.11904969      11.95239861     -12.74151623
Br      -0.14716449      13.34897803     -14.10213208
O       -5.66440396      -6.82363999      -2.02174188
C       -5.27019695      -6.19033437      -1.05647561
C       -4.34507941      -5.04468958      -1.10867930
C       -4.03614325      -4.51093584      -2.29917552
C       -3.17216859      -3.38732022      -2.39449065
C       -2.83655698      -2.65216928      -3.52517862
C       -1.94871045      -1.62255100      -3.13007079
C       -1.77746245      -1.77746245      -1.77746245
O       -2.50471683      -2.82985716      -1.32645476
O       -5.60453268      -6.41000025       0.24004200
C       -6.63564550      -7.38473080       0.41031360
C       -8.01361058      -6.84458018       0.02876795
O       -8.20005020      -5.66005276      -0.25055948
C       -9.17548558      -7.78427492       0.02243288
C      -10.40760517      -7.31361568      -0.45764465
C      -11.53150907      -8.14406404      -0.46763233
C      -11.42678595      -9.44945157       0.00452462
C      -10.20921627      -9.93165475       0.48262837
C       -9.08256219      -9.10091022       0.49219076
H       -3.96705589      -4.65816216      -0.17054500
H       -4.45857420      -4.91705429      -3.21539174
H       -3.20371744      -2.84030627      -4.52599340
H       -1.49563966      -0.86684402      -3.75551660
H       -6.65317269      -7.63896735       1.47491541
H       -6.39767595      -8.28881675      -0.16120319
H      -10.49928047      -6.29296677      -0.82711716
H      -12.47721218      -7.76045569      -0.84223346
H      -10.12758982     -10.95100336       0.85286820
H       -8.15348310      -9.50936954       0.87903855
C      -12.58419612     -10.30618975       0.00335202
C      -13.55352714     -11.02370799       0.00236997
Br     -15.12085341     -12.18387428       0.00078208
O       -2.40089239       4.70203393       7.40685951
C       -1.40692193       4.22934787       6.88073713
C       -1.37635413       3.54686608       5.57522808
C       -2.46363723       3.59066026       4.79195713
C       -2.46866340       2.97227299       3.51304306
C       -3.46078284       3.01250766       2.54061438
C       -3.01753722       2.25225319       1.43154183
C       -1.77746245       1.77746245       1.77746245
O       -1.43865890       2.20199834       3.02037151
O       -0.14743074       4.24182566       7.38523454
C       -0.01031857       5.03100649       8.56873763
C       -0.02741021       6.53022499       8.27178761
O       -0.01611071       6.97195374       7.12259798
C       -0.03046222       7.48829073       9.41857467
C       -0.18204097       8.85580652       9.14101801
C       -0.17225891       9.79688006      10.17406648
C       -0.00920402       9.37263045      11.48987842
C        0.14055982       8.01754759      11.78125489
C        0.12995734       7.07396684      10.74727216
H       -0.45740407       3.05298978       5.28536921
H       -3.35795402       4.11932097       5.11374524
H       -4.40038285       3.54318310       2.62645116
H       -3.53922595       2.07713798       0.50163636
H        0.96419936       4.78116223       9.00026177
H       -0.79074004       4.76612811       9.29082774
H       -0.30813818       9.19700863       8.11421758
H       -0.28981156      10.85163354       9.93845623
H        0.26939658       7.68608115      12.80904042
H        0.25695286       6.02837518      11.01239176
C        0.00932049      10.33958739      12.55676695
C        0.02483476      11.14941382      13.45028609
Br       0.04992003      12.45883467      14.89503097
O        6.82170637      -5.66695148       2.02112798
C        6.48481677      -4.88222056       1.14996960
C        5.27588532      -4.04048230       1.18208067
C        4.56499420      -3.96492213       2.31633828
C        3.40970651      -3.14267496       2.40159798
C        2.62802748      -2.86836347       3.51751394
C        1.58806866      -1.99414045       3.11912314
C        1.77746245      -1.77746245       1.77746245
O        2.86436451      -2.45925389       1.33741035
O        7.15040398      -4.62906126      -0.00497430
C        8.43382100      -5.25348402      -0.07724232
C        9.46914200      -4.55578756       0.80449324
O        9.23045994      -3.49608932       1.38411317
C       10.82416132      -5.17047833       0.94268798
C       11.72244002      -4.59904157       1.85738392
C       13.00915002      -5.12182723       2.01222820
C       13.40255062      -6.21863395       1.25052832
C       12.52075051      -6.79811930       0.33937285
C       11.23130323      -6.27579958       0.18417884
H        5.02073586      -3.48937018       0.28565702
H        4.87207929      -4.51782812       3.20111282
H        2.80054501      -3.25610233       4.51336976
H        0.80431541      -1.57802022       3.73566466
H        8.76339602      -5.17175386      -1.11792524
H        8.35146358      -6.31513963       0.18109268
H       11.42388075      -3.73937398       2.45610965
H       13.69065219      -4.66426231       2.72498683
H       12.82843273      -7.65410323      -0.25681098
H       10.57531415      -6.74911617      -0.54061624
C       14.73011233      -6.75574080       1.40118072
C       15.84194526      -7.20556780       1.52735210
Br      17.63968507      -7.93290000       1.73136055
C       -0.00445707       0.01189536      -1.78238275
H       -0.66409135       0.67374010      -2.43557963
H        0.65740317      -0.63156657      -2.45157240
C       -0.90989263      -0.90692880      -0.91072765
C        0.90977584       0.90977584      -0.90977584
C       -0.00465871       1.77757030       0.00794375
H       -0.66225468       2.44313916      -0.64384735
H        0.64322798       2.43503045       0.67728295
C       -1.78241447       0.00034974      -0.00472694
H       -2.45427497      -0.65498947       0.64260836
H       -2.43311707       0.67328779      -0.65473579
C       -0.91132561       0.90220522       0.91563759
C       -0.01476271      -0.02253852       1.78660255
H       -0.67934791      -0.69751639       2.42135241
H        0.63392994       0.61504881       2.47327442
C        0.01484550      -1.77751727      -0.01636693
H        0.67870853      -2.42144646      -0.68295456
H       -0.62264859      -2.45592969       0.64226336
C        1.78714474       0.01002794       0.00389507
H        2.44202412       0.67113390       0.66197326
H        2.45385902      -0.65136977      -0.64189061
C        0.91606151      -0.90478549       0.90901405
