129
Properties=species:S:1:pos:R:3 pbc="F F F"
C        0.00000000       0.00000000       0.00000000
O        1.34005335       4.09729695      -6.34272346
C        0.35116642       3.65199563      -5.78413281
C        0.35491293       2.89203678      -4.52178651
C        1.48708771       2.82248173      -3.80697310
C        1.52874475       2.12594778      -2.56957485
C        2.57703787       2.04660336      -1.66055158
C        2.15318195       1.24580021      -0.57263800
C        0.86755842       0.86755842      -0.86755842
O        0.48333676       1.38838209      -2.05959782
O       -0.93261591       3.77029742      -6.20709734
C       -1.08954114       4.63880001      -7.33109175
C       -0.96105665       6.11284281      -6.94792457
O       -0.87688044       6.48158539      -5.77624541
C       -0.96558960       7.13903956      -8.03416559
C       -0.71251327       8.47515439      -7.68651231
C       -0.72419183       9.47805113      -8.65963407
C       -0.99080409       9.14744374      -9.98536117
C       -1.24210789       7.82447475     -10.34616373
C       -1.22971399       6.81897317      -9.37231040
H       -0.57448908       2.43600636      -4.20453371
H        2.39224513       3.31662073      -4.15244230
H        3.54134781       2.52529389      -1.77366333
H        2.71678687       0.98230440       0.31080305
H       -2.10154319       4.47437847      -7.71467728
H       -0.37118465       4.37414257      -8.11502590
H       -0.50496509       8.74331216      -6.65130525
H       -0.52708780      10.50719813      -8.37007892
H       -1.45183346       7.56623980     -11.38160658
H       -1.43739152       5.80135996      -9.69013358
C       -1.01156579      10.17876392     -10.99012364
C       -1.02895371      11.04249458     -11.83161221
Br      -1.05706852      12.43907401     -13.19222805
O       -4.64214106      -5.99684721      -1.14108549
C       -4.23999377      -5.37679868      -0.17050241
C       -3.34294166      -4.20880628      -0.21698828
C       -3.07445457      -3.64070480      -1.40138317
C       -2.23902022      -2.49517725      -1.49006991
C       -1.94709464      -1.72653481      -2.61056336
C       -1.07410109      -0.68566603      -2.21185305
C       -0.86755842      -0.86755842      -0.86755842
O       -1.55961447      -1.94686341      -0.42483879
O       -4.53859240      -5.63401716       1.12783071
C       -5.54273338      -6.63639601       1.29877878
C       -6.94134744      -6.12018947       0.96182617
O       -7.16148887      -4.93426868       0.71480718
C       -8.08114071      -7.08656836       0.96009352
C       -9.33470913      -6.63411882       0.51967452
C      -10.43914918      -7.49033304       0.51598885
C      -10.29336447      -8.80340410       0.95476775
C       -9.05411916      -9.26768831       1.39327689
C       -7.94694723      -8.41110359       1.39648124
H       -2.95193450      -3.83515946       0.72104298
H       -3.50887903      -4.03548079      -2.31694833
H       -2.33328011      -1.90020204      -3.60682288
H       -0.65336436       0.09467044      -2.82959430
H       -5.52935708      -6.91538077       2.35722529
H       -5.29755672      -7.52125517       0.70082808
H       -9.45849130      -5.60768580       0.17652479
H      -11.40197316      -7.12057278       0.17235668
H       -8.94039224     -10.29307581       1.73745513
H       -6.99987883      -8.80637406       1.75215088
C      -11.43048089      -9.68688495       0.96004406
C      -12.38281589     -10.42680016       0.96446297
Br     -13.92266104     -11.62318048       0.97160798
O       -1.42688256       3.91496009       6.43823111
C       -0.43451926       3.45356942       5.89920618
C       -0.41864428       2.73984429       4.61024765
C       -1.52532496       2.73785154       3.85336604
C       -1.54596902       2.08798051       2.59031786
C       -2.56203480       2.08004090       1.64211712
C       -2.12704418       1.30345577       0.54112022
C       -0.86755842       0.86755842       0.86755842
O       -0.50939934       1.33088261       2.09103473
O        0.83612006       3.50905257       6.37184634
C        0.98222271       4.33044512       7.53212821
C        0.92075137       5.82098031       7.19948179
O        0.89325931       6.23420217       6.04000750
C        0.92169459       6.80685156       8.32245858
C        0.72955448       8.16298824       8.01571968
C        0.74099184       9.12936602       9.02511919
C        0.94633402       8.74196867      10.34636618
C        1.13668641       7.39855642      10.66666058
C        1.12446871       6.42962988       9.65640842
H        0.50498992       2.26132216       4.30971874
H       -2.42443073       3.25252586       4.18435157
H       -3.51215940       2.58977765       1.73836798
H       -2.66658898       1.09274090      -0.37104166
H        1.97280227       4.11505346       7.94526137
H        0.22632603       4.06474772       8.27956213
H        0.57020596       8.47545409       6.98440419
H        0.59163359      10.17479306       8.76702979
H        1.29855512       7.09591115      11.69865688
H        1.28375131       5.39432000       9.94353331
C        0.96668566       9.73526564      11.38874180
C        0.98373016      10.56715186      12.26173138
Br       1.01128967      11.91224151      13.67328170
O        5.89614133      -4.77757418       1.10635825
C        5.55887277      -3.99513358       0.23328851
C        4.35369669      -3.14808750       0.26695203
C        3.64800709      -3.06463418       1.40390127
C        2.49661852      -2.23708194       1.49056691
C        1.72091258      -1.95465562       2.60862461
C        0.68299802      -1.07768912       2.21093302
C        0.86755842      -0.86755842       0.86755842
O        1.94964058      -1.55587963       0.42579646
O        6.22057466      -3.74976746      -0.92556327
C        7.50099094      -4.37999308      -1.00063340
C        8.54305564      -3.68298441      -0.12632932
O        8.31139089      -2.61980586       0.44975362
C        9.89601732      -4.30288638       0.00871185
C       10.80064430      -3.73140643       0.91710270
C       12.08576190      -4.25904082       1.06869064
C       12.47120278      -5.36076863       0.31002941
C       11.58303489      -5.94035260      -0.59485691
C       10.29517657      -5.41317389      -0.74678087
H        4.09706049      -2.59971999      -0.63072949
H        3.95652033      -3.61506808       2.28971975
H        1.89604276      -2.33887367       3.60538860
H       -0.09631857      -0.65558083       2.82902596
H        7.82644471      -4.30412347      -2.04305563
H        7.41520841      -5.44017247      -0.73739706
H       10.50833097      -2.86791639       1.51340496
H       12.77226366      -3.80136327       1.77656233
H       11.88449765      -6.80018733      -1.18867206
H        9.63406852      -5.88676369      -1.46673020
C       13.79709219      -5.90291712       0.45731247
C       14.90752457      -6.35696647       0.58066204
Br      16.70299981      -7.09112587       0.78010786
