117
Properties=species:S:1:pos:R:3 pbc="F F F"
C        0.00000000       0.00000000       0.00000000
O        6.55681790       1.91225939      -3.36486956
C        6.31643992       1.03755337      -2.54250937
C        4.94125981       0.88545320      -1.98830653
C        3.99272145       1.74511480      -2.38786580
C        2.65325638       1.64379921      -1.92816560
C        1.57600438       2.46578609      -2.23906418
C        0.43639817       1.96848801      -1.56363507
C        0.86729240       0.86729240      -0.86729240
O        2.19323270       0.66501752      -1.07408690
N        7.19989613       0.10983256      -2.02615319
C        8.56945954      -0.05113296      -2.36117314
C        9.20620492       0.75400458      -3.31566861
C       10.55666218       0.57780036      -3.63152834
C       11.28961536      -0.41015665      -2.99129808
Br      13.11591366      -0.64899203      -3.41299246
C       10.68232046      -1.22494480      -2.03974994
C        9.32044584      -1.06102177      -1.71686769
C        8.72879916      -1.97151167      -0.67372605
H        4.73508641       0.08256093      -1.29323808
H        4.22841815       2.54143030      -3.08970633
H        1.61678067       3.32860881      -2.89102340
H       -0.56854929       2.36562524      -1.58846219
H        6.83559999      -0.52728248      -1.33338927
H        8.67901369       1.54068410      -3.84569968
H       11.01575558       1.22132284      -4.37713361
H       11.27023066      -1.99490508      -1.54469313
H        8.44408029      -1.39531348       0.21233416
H        9.44314232      -2.73878002      -0.35530185
H        7.85360259      -2.49453950      -1.07207621
O       -4.78647050      -1.26241303      -5.78506332
C       -4.35251334      -0.21015909      -5.33383023
C       -3.44999177      -0.21728338      -4.14774438
C       -3.15588074      -1.39403757      -3.57578373
C       -2.27883239      -1.48350138      -2.46288741
C       -1.89813961      -2.62163053      -1.76108452
C       -0.99584881      -2.22803612      -0.74463632
C       -0.86729240      -0.86729240      -0.86729240
O       -1.63346723      -0.40931196      -1.88955794
N       -4.59680179       1.06526981      -5.80434990
C       -5.37726800       1.42985902      -6.93209074
C       -6.01151625       0.47832914      -7.74269100
C       -6.77524559       0.85926482      -8.85001011
C       -6.91512436       2.20382754      -9.15945996
Br      -7.94942908       2.72270114     -10.65318614
C       -6.29530085       3.17025462      -8.37207937
C       -5.51817832       2.79868794      -7.25680139
C       -4.88169906       3.89507254      -6.44438702
H       -3.04238027       0.71701204      -3.78551719
H       -3.57857602      -2.31795677      -3.96302200
H       -2.23699078      -3.62758211      -1.97184000
H       -0.50347766      -2.86159652      -0.02046395
H       -4.17504824       1.82626990      -5.29292843
H       -5.93420690      -0.58597961      -7.54521097
H       -7.25190330       0.09280025      -9.45510897
H       -6.41507467       4.22126806      -8.62621210
H       -5.31891018       3.92377199      -5.44129446
H       -5.03610091       4.87848051      -6.90204375
H       -3.80026013       3.74165487      -6.37253405
O       -1.21990502       5.02968192       5.58435991
C       -0.19263333       4.45278768       5.25108165
C       -0.21507880       3.46260538       4.13733535
C       -1.38615785       3.20096494       3.53857926
C       -1.48087086       2.29388300       2.45046732
C       -2.61890410       1.91373897       1.74821159
C       -2.22639137       1.00525931       0.73687057
C       -0.86729240       0.86729240       0.86729240
O       -0.40984783       1.63040124       1.89208806
N        1.06667688       4.60485238       5.79770638
C        1.44892182       5.48633660       6.84208494
C        0.53843978       6.35544184       7.45887605
C        0.93642408       7.21671560       8.48569937
C        2.25657786       7.21693759       8.91039706
Br       2.79744006       8.37705100      10.30030315
C        3.18239271       6.36474950       8.31476882
C        2.79483696       5.49614477       7.27498396
C        3.84515291       4.59608178       6.68008467
H        0.70806526       2.99119088       3.82775980
H       -2.29816135       3.69183634       3.86955709
H       -3.62263215       2.26531217       1.94846857
H       -2.85882835       0.51931589       0.00739390
H        1.80045473       4.02734567       5.41481583
H       -0.50537147       6.39540977       7.16461624
H        0.20195177       7.87641836       8.93974543
H        4.21425872       6.37497046       8.65930697
H        3.61447369       3.54924676       6.90165957
H        4.83905619       4.81053302       7.08818733
H        3.90596923       4.74039177       5.59671678
O        1.51052938      -6.25778605       4.06563142
C        0.47011973      -5.89406488       3.53231805
C        0.40895117      -4.58657064       2.81949771
C        1.50502084      -3.81400505       2.80667617
C        1.53269637      -2.57055584       2.12196897
C        2.58187976      -1.66241989       2.03655501
C        2.15740694      -0.57702191       1.23409239
C        0.86729240      -0.86729240       0.86729240
O        0.48055342      -2.05592496       1.39585874
N       -0.73196201      -6.57329772       3.49454617
C       -1.01217731      -7.85409633       4.03758070
C       -0.03915210      -8.61581062       4.69921959
C       -0.33632978      -9.87622005       5.22610062
C       -1.61771130     -10.39075968       5.09770840
Br      -2.02405283     -12.09237307       5.81159385
C       -2.60348922      -9.65618680       4.44442802
C       -2.31488150      -8.38712251       3.90405075
C       -3.42930458      -7.64367608       3.21664204
H       -0.50536061      -4.29746099       2.31878504
H        2.41119555      -4.13147658       3.31688266
H        3.55089519      -1.78224182       2.50327588
H        2.72605809       0.30025741       0.95973746
H       -1.49966485      -6.11179720       3.02957443
H        0.97825242      -8.26036190       4.82678316
H        0.44439527     -10.43744158       5.73237517
H       -3.60456967     -10.07206032       4.35252806
H       -3.68405228      -6.74043411       3.78005082
H       -4.33575771      -8.25441562       3.14100625
H       -3.13901480      -7.37388080       2.19627331
