125
Properties=species:S:1:pos:R:3 pbc="F F F"
C        0.00000000       0.00000000       0.00000000
O        6.55681790       1.91225939      -3.36486956
C        6.31643992       1.03755337      -2.54250937
C        4.94125981       0.88545320      -1.98830653
C        3.99272145       1.74511480      -2.38786580
C        2.65325638       1.64379921      -1.92816560
C        1.57600438       2.46578609      -2.23906418
C        0.43639817       1.96848801      -1.56363507
C        0.86729240       0.86729240      -0.86729240
O        2.19323270       0.66501752      -1.07408690
N        7.19989613       0.10983256      -2.02615319
C        8.56945954      -0.05113296      -2.36117314
C        9.20620492       0.75400458      -3.31566861
C       10.55666218       0.57780036      -3.63152834
C       11.28961536      -0.41015665      -2.99129808
C       10.68232046      -1.22494480      -2.03974994
C        9.32044584      -1.06102177      -1.71686769
C        8.72879916      -1.97151167      -0.67372605
H        4.73508641       0.08256093      -1.29323808
H        4.22841815       2.54143030      -3.08970633
H        1.61678067       3.32860881      -2.89102340
H       -0.56854929       2.36562524      -1.58846219
H        6.83559999      -0.52728248      -1.33338927
H        8.67901369       1.54068410      -3.84569968
H       11.01575558       1.22132284      -4.37713361
H       11.27023066      -1.99490508      -1.54469313
H        8.44408029      -1.39531348       0.21233416
H        9.44314232      -2.73878002      -0.35530185
H        7.85360259      -2.49453950      -1.07207621
C       12.68144431      -0.59217401      -3.31267299
C       13.84710107      -0.74461355      -3.58182447
Br      15.73186945      -0.99109539      -4.01701966
O       -4.76236391      -1.26784180      -5.80374115
C       -4.32519894      -0.21551317      -5.35579054
C       -3.42903684      -0.22109848      -4.16488421
C       -3.14424987      -1.39632827      -3.58512391
C       -2.27361117      -1.48450611      -2.46710390
C       -1.90272799      -2.62087864      -1.75724802
C       -1.00375778      -2.22666063      -0.73810284
C       -0.86729240      -0.86729240      -0.86729240
O       -1.62557523      -0.41071325      -1.89604865
N       -4.56017665       1.05866541      -5.83437064
C       -5.33268895       1.42136897      -6.96817973
C       -5.96769426       0.46890698      -7.77709083
C       -6.72349134       0.84797668      -8.89047623
C       -6.85454837       2.19159245      -9.20780087
C       -6.23376464       3.15890387      -8.42226483
C       -5.46456699       2.78917428      -7.30089905
C       -4.82656736       3.88648472      -6.49093090
H       -3.01837382       0.71293984      -3.80545144
H       -3.56980810      -2.32004405      -3.96970263
H       -2.24581905      -3.62612775      -1.96446608
H       -0.51862553      -2.85895215      -0.00796046
H       -4.13708869       1.82013439      -5.32475248
H       -5.89711497      -0.59472815      -7.57355436
H       -7.20101381       0.08083491      -9.49403312
H       -6.34657742       4.20916714      -8.68260844
H       -5.26893747       3.92285707      -5.49035225
H       -4.97328763       4.86824215      -6.95461867
H       -3.74635918       3.72771443      -6.41249456
C       -7.63462080       2.58512605     -10.35244855
C       -8.28793146       2.91471044     -11.31109098
Br      -9.34427954       3.44762053     -12.86113471
O       -1.22756876       4.97425824       5.63211985
C       -0.20346763       4.38857588       5.30445914
C       -0.22417968       3.41282528       4.17801457
C       -1.39074198       3.17364184       3.56131823
C       -1.48299238       2.28157554       2.46065326
C       -2.61668606       1.92478702       1.73938158
C       -2.22278258       1.02416192       0.72157675
C       -0.86729240       0.86729240       0.86729240
O       -0.41337128       1.61159016       1.90737568
N        1.05059860       4.51773361       5.86874687
C        1.43056975       5.38109836       6.92897111
C        0.52330356       6.25389881       7.54528286
C        0.91898101       7.09707662       8.58789527
C        2.23352485       7.07517334       9.02910829
C        3.15606470       6.21882654       8.43436376
C        2.77088692       5.36834907       7.37882961
C        3.81729743       4.46254231       6.78576866
H        0.69683375       2.93363255       3.87408663
H       -2.30064448       3.67187786       3.88703244
H       -3.61838530       2.28655554       1.93147205
H       -2.85194333       0.55550202      -0.02190721
H        1.78187613       3.93579499       5.48778791
H       -0.51609621       6.31083251       7.23846876
H        0.18713642       7.76031332       9.04103513
H        4.18351198       6.21159418       8.79193650
H        3.57068918       3.41602575       6.99109608
H        4.80854456       4.65919211       7.20901660
H        3.89369604       4.61966217       5.70517318
C        2.64328343       7.94061262      10.10461410
C        2.98645625       8.66541802      11.00535022
Br       3.54133767       9.83736704      12.46176434
O        1.49410095      -6.23819254       4.10165336
C        0.45243817      -5.87059805       3.57346644
C        0.39572860      -4.56810298       2.85118794
C        1.49747907      -3.80402976       2.82419323
C        1.52933840      -2.56604036       2.12984242
C        2.58467731      -1.66659625       2.02958110
C        2.16232209      -0.58409446       1.22210470
C        0.86729240      -0.86729240       0.86729240
O        0.47561516      -2.04891326       1.40780870
N       -0.75499801      -6.54091875       3.54996114
C       -1.04074438      -7.81540256       4.10484153
C       -0.06849381      -8.57948352       4.76488840
C       -0.37117047      -9.83357222       5.30358914
C       -1.65734699     -10.33929023       5.18881355
C       -2.64249107      -9.60218875       4.53742792
C       -2.34842126      -8.33948244       3.98523058
C       -3.46239602      -7.59278583       3.30062373
H       -0.52015935      -4.27582995       2.35521483
H        2.40508830      -4.12452926       3.32993723
H        3.55628682      -1.79026512       2.48986094
H        2.73548358       0.28672729       0.93678185
H       -1.52270966      -6.07711154       3.08730490
H        0.95251167      -8.23084229       4.88204352
H        0.40912329     -10.39688161       5.80820712
H       -3.64735860     -10.01110601       4.45627130
H       -3.70600674      -6.68339486       3.85904452
H       -4.37399121      -8.19715586       3.23649949
H       -3.17785710      -7.33293317       2.27606324
C       -1.97266406     -11.62954844       5.74505891
C       -2.23674211     -12.71013968       6.21091441
Br      -2.66373397     -14.45736434       6.96416335
