126
Properties=species:S:1:pos:R:3 pbc="F F F"
O        7.54465619       2.92755927      -4.06294737
C        7.27976955       2.08023340      -3.22041571
C        5.88204824       1.89593635      -2.74234097
C        4.92844921       2.71864367      -3.20381470
C        3.57420358       2.58214558      -2.79773851
C        2.48133932       3.35386847      -3.17670491
C        1.33517891       2.83844137      -2.52594794
C        1.77709534       1.77709534      -1.77709534
O        3.11553496       1.61520508      -1.92949707
N        8.16103957       1.21348349      -2.60646993
C        9.55184598       1.11315795      -2.83458165
C       10.24960971       1.89111271      -3.76317144
C       11.62900205       1.73212509      -3.93461971
C       12.31855791       0.79183021      -3.17630236
Br      14.18133485       0.57780653      -3.40913284
C       11.64067247       0.00819022      -2.24707632
C       10.26102665       0.16923429      -2.07850064
H        5.66317452       1.09994778      -2.04310995
H        5.17237568       3.51098799      -3.90767208
H        2.51691423       4.19633736      -3.85483126
H        0.31898372       3.19883783      -2.59961312
H        7.78547247       0.58141849      -1.91200059
H        9.75069907       2.63470764      -4.37659194
H       12.14768861       2.34901175      -4.66384203
H       12.17249401      -0.72833302      -1.65081782
H        9.75358075      -0.45419628      -1.34670605
O       -3.05159730      -7.57911737      -3.90444815
C       -2.08937129      -7.28230831      -3.20873906
C       -1.87682768      -5.87673933      -2.76675856
C       -2.72308646      -4.92968354      -3.19813758
C       -2.58204930      -3.57417683      -2.79786154
C       -3.36569723      -2.48462568      -3.16158980
C       -2.85197259      -1.33893825      -2.50865738
C       -1.77709534      -1.77709534      -1.77709534
O       -1.60397125      -3.11241389      -1.94385196
N       -1.10261687      -8.13023777      -2.74813836
C       -1.00628289      -9.52215314      -2.97114954
C       -1.94273387     -10.26395150      -3.69720849
C       -1.77993504     -11.64228497      -3.87352683
C       -0.67707265     -12.28667510      -3.32294272
Br      -0.45862846     -14.14822390      -3.56142186
C        0.26554365     -11.56462167      -2.59686099
C        0.09944510     -10.18638011      -2.42182656
H       -1.05375533      -5.65034098      -2.10213594
H       -3.54443010      -5.18166683      -3.86493882
H       -4.21862796      -2.52310717      -3.82634773
H       -3.22422275      -0.32603635      -2.56717557
H       -0.35911097      -7.72370931      -2.19607127
H       -2.81832861      -9.80171403      -4.14195600
H       -2.52289279     -12.19599755      -4.44165205
H        1.12984915     -12.06094177      -2.16388619
H        0.84884784      -9.64393567      -1.85100268
O       -4.23942900       7.49586136       2.79987247
C       -3.41935883       7.22996095       1.93109887
C       -2.89489615       5.84489206       1.78053736
C       -3.28836478       4.90725851       2.65528429
C       -2.83569914       3.56477269       2.55361584
C       -3.14330012       2.48917139       3.37944120
C       -2.46840595       1.34894233       2.88221995
C       -1.77709534       1.77709534       1.77709534
O       -1.98692335       3.10170894       1.57160481
N       -2.87248255       8.09933331       1.00917714
C       -3.15764543       9.47580152       0.86613862
C       -4.08292560      10.16808551       1.65288275
C       -4.31324482      11.53299763       1.44950439
C       -3.61754006      12.21345600       0.45569443
Br      -3.92984475      14.05665621       0.18177325
C       -2.69260253      11.54082610      -0.33748962
C       -2.46506562      10.17563349      -0.13193754
H       -2.21778927       5.62159655       0.96684643
H       -3.97119317       5.15525841       3.46458417
H       -3.79053526       2.53200799       4.24553961
H       -2.48937866       0.34537196       3.28268404
H       -2.18799750       7.72571597       0.36517809
H       -4.64860156       9.67579254       2.43760455
H       -5.03851776      12.04765278       2.07437185
H       -2.14507088      12.06561812      -1.11571019
H       -1.73790078       9.67204598      -0.76385624
O        2.92739045      -4.06317125       7.54460112
C        2.08003657      -3.22066783       7.27971425
C        1.89578412      -2.74253425       5.88200719
C        2.71856005      -3.20392185       4.92842568
C        2.58210793      -2.79778661       3.57419313
C        3.35390219      -3.17666260       2.48134791
C        2.83849911      -2.52587505       1.33519406
C        1.77709534      -1.77709534       1.77709534
O        1.61514757      -1.92956982       3.11551971
N        1.21321417      -2.60680682       8.16097202
C        1.11283225      -2.83499083       9.55176249
C        1.89079821      -3.76357673      10.24951892
C        1.73175201      -3.93509960      11.62889523
C        0.79138693      -3.17686128      12.31844227
Br       0.57728422      -3.40979247      14.18119753
C        0.00773475      -2.24764037      11.64056389
C        0.16883754      -2.07898998      10.26093405
H        1.09977226      -2.04333122       5.66312878
H        3.51092667      -3.90775264       5.17235645
H        4.19640224      -3.85474983       2.51693080
H        3.19894841      -2.59947348       0.31901278
H        0.58113371      -1.91234991       7.78540793
H        2.63444707      -4.37693699       9.75061459
H        2.34864888      -4.66431716      12.14757635
H       -0.72884318      -1.65144337      12.17237862
H       -0.45460390      -1.34720102       9.75349340
C       -0.00445707       0.01189536      -1.78238275
H       -0.66409135       0.67374010      -2.43557963
H        0.65740317      -0.63156657      -2.45157240
C       -0.90989263      -0.90692880      -0.91072765
C        0.90977584       0.90977584      -0.90977584
C       -0.00465871       1.77757030       0.00794375
H       -0.66225468       2.44313916      -0.64384735
H        0.64322798       2.43503045       0.67728295
C       -1.78241447       0.00034974      -0.00472694
H       -2.45427497      -0.65498947       0.64260836
H       -2.43311707       0.67328779      -0.65473579
C       -0.91132561       0.90220522       0.91563759
C       -0.01476271      -0.02253852       1.78660255
H       -0.67934791      -0.69751639       2.42135241
H        0.63392994       0.61504881       2.47327442
C        0.01484550      -1.77751727      -0.01636693
H        0.67870853      -2.42144646      -0.68295456
H       -0.62264859      -2.45592969       0.64226336
C        1.78714474       0.01002794       0.00389507
H        2.44202412       0.67113390       0.66197326
H        2.45385902      -0.65136977      -0.64189061
C        0.91606151      -0.90478549       0.90901405
