105
Properties=species:S:1:pos:R:3 pbc="F F F"
C        0.00000000       0.00000000       0.00000000
O        6.63475216       2.01765524      -3.15304335
C        6.36986552       1.17032937      -2.31051168
C        4.97214422       0.98603233      -1.83243695
C        4.01854519       1.80873964      -2.29391067
C        2.66429956       1.67224156      -1.88783449
C        1.57143530       2.44396445      -2.26680088
C        0.42527488       1.92853735      -1.61604392
C        0.86719131       0.86719131      -0.86719131
O        2.20563093       0.70530106      -1.01959304
N        7.25113555       0.30357947      -1.69656591
C        8.64194195       0.20325392      -1.92467762
C        9.33970569       0.98120869      -2.85326741
C       10.71909802       0.82222106      -3.02471568
C       11.40865389      -0.11807382      -2.26639834
Br      13.27143082      -0.33209749      -2.49922882
C       10.73076845      -0.90171381      -1.33717229
C        9.35112262      -0.74066974      -1.16859662
H        4.75327049       0.19004376      -1.13320592
H        4.26247166       2.60108396      -2.99776806
H        1.60701021       3.28643334      -2.94492724
H       -0.59092031       2.28893380      -1.68970910
H        6.87556844      -0.32848553      -1.00209657
H        8.84079505       1.72480361      -3.46668792
H       11.23778459       1.43910772      -3.75393801
H       11.26258999      -1.63823704      -0.74091379
H        8.84367672      -1.36410030      -0.43680202
O       -6.70258998      -2.76148370      -2.34137707
C       -6.41826780      -2.03113393      -1.40130485
C       -5.00365116      -1.65057899      -1.13638334
C       -4.03923609      -2.17448289      -1.90747653
C       -2.67314009      -1.83680698      -1.71442853
C       -1.56617820      -2.29714483      -2.41887760
C       -0.41474906      -1.67679892      -1.87830817
C       -0.86719131      -0.86719131      -0.86719131
O       -2.21662319      -0.95614579      -0.75775605
N       -7.28941885      -1.47559483      -0.48626724
C       -8.69440012      -1.62188925      -0.45358412
C       -9.42543382      -2.35844497      -1.39030300
C      -10.81774990      -2.45529741      -1.29298746
C      -11.48700454      -1.81415867      -0.25581520
Br     -13.36738381      -1.94538857      -0.12578978
C      -10.77597453      -1.07624295       0.68599054
C       -9.38365092      -0.98084341       0.58544483
H       -4.78412474      -0.95511536      -0.33728008
H       -4.28448233      -2.87072254      -2.70611881
H       -1.59678917      -3.00392305      -3.23765857
H        0.61120022      -1.80676467      -2.19215814
H       -6.89224662      -0.90583020       0.24889734
H       -8.94372960      -2.87255004      -2.21600693
H      -11.36259267      -3.03354624      -2.03469141
H      -11.29172481      -0.57274772       1.49920579
H       -8.85022888      -0.39898298       1.33283342
O       -3.04303219       6.65964261       2.10277596
C       -2.18670238       6.39453741       1.26946679
C       -1.73753715       4.99038657       1.06268977
C       -2.24129132       4.02904514       1.85085905
C       -1.86421311       2.66895956       1.69120293
C       -2.28756905       1.56763889       2.42699269
C       -1.65182915       0.41855795       1.89946905
C       -0.86719131       0.86719131       0.86719131
O       -0.98387624       2.21239319       0.73425561
N       -1.53120849       7.28093555       0.43913689
C       -1.72381312       8.67885267       0.36720771
C       -2.65421567       9.38031699       1.13964913
C       -2.78903662      10.76684136       1.01015679
C       -1.99201077      11.45987500       0.10509264
Br      -2.17539422      13.33229877      -0.06913084
C       -1.06036358      10.77839677      -0.67253341
C       -0.92846947       9.39164004      -0.54106000
H       -1.02458123       4.77352842       0.27841053
H       -2.95818914       4.27114019       2.63199435
H       -2.98490161       1.59969070       3.25377848
H       -1.75826448      -0.60380200       2.23326012
H       -0.83069974       6.90370701      -0.18522727
H       -3.29714042       8.87896263       1.85618353
H       -3.52052027      11.28830970       1.62200034
H       -0.43398302      11.31289196      -1.38160824
H       -0.19399002       8.88149849      -1.15911006
O        2.05546911      -3.10347635       6.64650529
C        1.21439561      -2.25470794       6.38160304
C        1.02011125      -1.78965942       4.98084283
C        1.82746147      -2.27019398       4.02354006
C        1.68067017      -1.87718750       2.66651793
C        2.43641803      -2.27616361       1.56961899
C        1.91561353      -1.63217562       0.42206701
C        0.86719131      -0.86719131       0.86719131
O        0.71817388      -1.00349254       2.20885861
N        0.36385762      -1.62201676       7.26540656
C        0.27615390      -1.83412481       8.65959480
C        1.05162791      -2.76355575       9.35899814
C        0.90575207      -2.91849423      10.74178846
C       -0.01885150      -2.14270493      11.43312497
Br      -0.21518259      -2.35324725      13.30049749
C       -0.79978812      -1.21236344      10.75365161
C       -0.65188957      -1.06032218       9.37061689
H        0.22933277      -1.08423800       4.76294942
H        2.61481773      -2.97993355       4.26657240
H        3.27191358      -2.96294846       1.60350875
H        2.26418127      -1.72061324      -0.59707191
H       -0.26476316      -0.92480832       6.88913432
H        1.78316906      -3.39029488       8.85882263
H        1.52037314      -3.64875497      11.26170221
H       -1.52408596      -0.60250848      11.28684422
H       -1.27290459      -0.32729830       8.86198473
