113
Properties=species:S:1:pos:R:3 pbc="F F F"
C        0.00000000       0.00000000       0.00000000
O        6.63475216       2.01765524      -3.15304335
C        6.36986552       1.17032937      -2.31051168
C        4.97214422       0.98603233      -1.83243695
C        4.01854519       1.80873964      -2.29391067
C        2.66429956       1.67224156      -1.88783449
C        1.57143530       2.44396445      -2.26680088
C        0.42527488       1.92853735      -1.61604392
C        0.86719131       0.86719131      -0.86719131
O        2.20563093       0.70530106      -1.01959304
N        7.25113555       0.30357947      -1.69656591
C        8.64194195       0.20325392      -1.92467762
C        9.33970569       0.98120869      -2.85326741
C       10.71909802       0.82222106      -3.02471568
C       11.40865389      -0.11807382      -2.26639834
C       10.73076845      -0.90171381      -1.33717229
C        9.35112262      -0.74066974      -1.16859662
H        4.75327049       0.19004376      -1.13320592
H        4.26247166       2.60108396      -2.99776806
H        1.60701021       3.28643334      -2.94492724
H       -0.59092031       2.28893380      -1.68970910
H        6.87556844      -0.32848553      -1.00209657
H        8.84079505       1.72480361      -3.46668792
H       11.23778459       1.43910772      -3.75393801
H       11.26258999      -1.63823704      -0.74091379
H        8.84367672      -1.36410030      -0.43680202
C       12.82833901      -0.28118848      -2.44384630
C       14.01732529      -0.41779701      -2.59245897
Br      15.93981555      -0.63868145      -2.83275308
O       -6.70664117      -2.71461061      -2.38419897
C       -6.42451869      -1.97719594      -1.44899195
C       -5.00878106      -1.60899818      -1.17283425
C       -4.04188549      -2.15156415      -1.92774587
C       -2.67435654      -1.82649952      -1.72351954
C       -1.56495640      -2.30631402      -2.41093021
C       -0.41273263      -1.69253589      -1.86458762
C       -0.86719131      -0.86719131      -0.86719131
O       -2.21860630      -0.94045956      -0.77145917
N       -7.29936323      -1.40243755      -0.54948014
C       -8.70611941      -1.53327564      -0.53047845
C       -9.43500470      -2.27206302      -1.46711407
C      -10.82925450      -2.35289941      -1.38388086
C      -11.50260844      -1.69339348      -0.36097649
C      -10.79376436      -0.95297627       0.58051370
C       -9.39948813      -0.87362775       0.49406637
H       -4.79031190      -0.90729984      -0.37890844
H       -4.28608484      -2.85375727      -2.72148157
H       -1.59444365      -3.02156747      -3.22235967
H        0.61505621      -1.83690782      -2.16587098
H       -6.90394670      -0.82902479       0.18379201
H       -8.95007105      -2.80024138      -2.28197414
H      -11.37234622      -2.93328089      -2.12520320
H      -11.31272116      -0.43517652       1.38263095
H       -8.86783763      -0.28945078       1.24090997
C      -12.93769129      -1.77693458      -0.27637096
C      -14.13957318      -1.84690025      -0.20551382
Br     -16.08291454      -1.96002883      -0.09094382
O       -2.97669746       6.67251539       2.15623791
C       -2.11212624       6.40694970       1.33163064
C       -1.68039029       4.99948524       1.11073796
C       -2.20959587       4.03432930       1.87727034
C       -1.84998596       2.67129842       1.70309122
C       -2.30007065       1.56576934       2.41636065
C       -1.67337453       0.41522760       1.88125403
C       -0.86719131       0.86719131       0.86719131
O       -0.96237069       2.21575330       0.75240104
N       -1.43168013       7.29555562       0.52404518
C       -1.60289635       8.69705424       0.46992290
C       -2.53429522       9.40086000       1.23902657
C       -2.64705774      10.79095276       1.12802427
C       -1.82681564      11.48523582       0.24492695
C       -0.89380598      10.80146880      -0.52904784
C       -0.78400221       9.41115808      -0.41611079
H       -0.95918415       4.78355615       0.33377988
H       -2.93433051       4.27559357       2.65139960
H       -3.00896483       1.59608461       3.23332134
H       -1.79954026      -0.61019066       2.19837300
H       -0.72760098       6.91715288      -0.09557438
H       -3.19491090       8.89868196       1.93869371
H       -3.37982744      11.31420233       1.73680055
H       -0.24935983      11.33691597      -1.22100906
H       -0.04798159       8.89927883      -1.03088197
C       -1.94388246      12.91595336       0.13116101
C       -2.04192592      14.11417929       0.03588204
Br      -2.20045391      16.05160929      -0.11817601
O        2.06940963      -3.08548772       6.65055341
C        1.23063065      -2.23446388       6.38561205
C        1.03266470      -1.77414252       4.98380628
C        1.83435907      -2.26159019       4.02524624
C        1.68377533      -1.87332518       2.66727509
C        2.43363878      -2.27955933       1.56900251
C        1.91085334      -1.63802676       0.42097605
C        0.86719131      -0.86719131       0.86719131
O        0.72291546      -0.99765257       2.20995700
N        0.38605595      -1.59497993       7.27024504
C        0.30300252      -1.80128221       8.66558877
C        1.07757487      -2.73100858       9.36559834
C        0.93652922      -2.87995817      10.74954737
C        0.01769387      -2.09784067      11.44144387
C       -0.76225912      -1.16710428      10.76138177
C       -0.61920309      -1.02106078       9.37719182
H        0.24380355      -1.06647711       4.76623951
H        2.61987995      -2.97346181       4.26798192
H        3.26656612      -2.96948451       1.60232016
H        2.25506422      -1.73182254      -0.59916416
H       -0.24130457      -0.89678468       6.89369937
H        1.80468555      -3.36257113       8.86502990
H        1.55032538      -3.61058788      11.26991705
H       -1.48206294      -0.55232486      11.29500481
H       -1.23933795      -0.28759867       8.86811773
C       -0.12696929      -2.25214020      12.86582592
C       -0.24812469      -2.38136605      14.05874589
Br      -0.44402272      -2.59031333      15.98759658
