134
Properties=species:S:1:pos:R:3 pbc="F F F"
O        7.05092162       5.29282720      -3.79310582
C        6.79326797       5.12316238      -2.60908273
C        5.58268943       4.36810086      -2.18359583
C        4.75449763       3.86897660      -3.11434086
C        3.55631555       3.16039373      -2.80057130
C        2.42232047       3.05215052      -3.59422945
C        1.38901539       2.26646155      -3.00046367
C        1.78176557       1.78176557      -1.78176557
S        3.34531919       2.25331470      -1.34692138
N        7.52739108       5.56634662      -1.53153030
C        8.72792276       6.31115891      -1.55918514
C        9.34744093       6.76670940      -2.72369061
C       10.54347163       7.49222366      -2.64638572
C       11.12133246       7.76161158      -1.40576148
C       10.51501923       7.31971051      -0.23573806
C        9.32596545       6.60285443      -0.32529256
F        8.74111803       6.17547004       0.80596201
H        5.39685226       4.26165459      -1.12355667
H        4.96822564       4.03561794      -4.16976235
H        2.33115094       3.53293847      -4.56204578
H        0.42444535       2.07549636      -3.45412749
H        7.20542178       5.33073635      -0.59892581
H        8.92808475       6.57895136      -3.70694293
H       11.01249975       7.83867107      -3.56441301
H       10.94699472       7.51861386       0.73914784
C       12.35458572       8.50183722      -1.33682373
C       13.38743531       9.12177620      -1.27908838
Br      15.05746576      10.12416510      -1.18573518
O       -3.52872475      -6.00174127      -6.60638861
C       -2.55570157      -5.26629917      -6.70351235
C       -2.20942540      -4.29884118      -5.62611954
C       -2.98104112      -4.22640786      -4.53036610
C       -2.74504226      -3.30928987      -3.46294845
C       -3.68806969      -2.80052633      -2.58010441
C       -3.13504441      -1.90559540      -1.61530081
C       -1.78176557      -1.78176557      -1.78176557
S       -1.17814484      -2.70587385      -3.06153659
N       -1.66541240      -5.20735378      -7.75250181
C       -1.68415497      -5.97606356      -8.93804829
C       -2.66991070      -6.91091540      -9.25701484
C       -2.59472761      -7.63074024     -10.45661316
C       -1.53406772      -7.41756992     -11.33706788
C       -0.54640929      -6.48667355     -11.03738497
C       -0.63370319      -5.77587904      -9.84453021
F        0.32171017      -4.87699226      -9.55534398
H       -1.34673065      -3.66323362      -5.77209925
H       -3.86074447      -4.86422159      -4.44863986
H       -4.74205511      -3.05025963      -2.63382044
H       -3.70781725      -1.39525007      -0.85100188
H       -0.88569736      -4.56178421      -7.68760237
H       -3.51127471      -7.10361813      -8.59908621
H       -3.37157649      -8.35574486     -10.68826248
H        0.28653375      -6.30496986     -11.70802464
C       -1.46153226      -8.16744253     -12.56427189
C       -1.40078381      -8.79546083     -13.59205525
Br      -1.30255870      -9.81091332     -15.25389401
O       -6.79400937       5.74711427       3.59573099
C       -6.38751256       5.69515404       2.44284648
C       -5.23474209       4.82999384       2.06965019
C       -4.62520641       4.09769661       3.01491207
C       -3.49518085       3.26554610       2.75655363
C       -2.51507215       2.88878399       3.66484429
C       -1.51508639       2.04160005       3.09925417
C       -1.78176557       1.78176557       1.78176557
S       -3.18947312       2.53224650       1.22383565
N       -6.89023627       6.37756590       1.35746582
C       -7.97542736       7.28247166       1.34036780
C       -8.69697520       7.67096570       2.46990004
C       -9.76466183       8.56981271       2.34760646
C      -10.11237293       9.07964827       1.09668432
C       -9.40119370       8.70720861      -0.03793451
C       -8.34104986       7.81630726       0.09675533
F       -7.65480056       7.45628929      -1.00046379
H       -4.90891331       4.83469486       1.03845536
H       -4.96993636       4.15675102       4.04691854
H       -2.50735379       3.22189215       4.69688924
H       -0.66129528       1.65270784       3.64006608
H       -6.46649807       6.21898955       0.44959632
H       -8.45595079       7.29787245       3.46015581
H      -10.31613685       8.86077017       3.23867681
H       -9.65439619       9.09202419      -1.01995964
C      -11.21590113       9.99736583       0.97997971
C      -12.14010601      10.76595429       0.88223959
Br     -13.63446713      12.00869682       0.72420209
O        3.51185537      -6.10186272       6.52313655
C        2.51218096      -5.40190674       6.61142538
C        2.16878654      -4.41070075       5.55489883
C        2.97256318      -4.27680948       4.48844243
C        2.74068586      -3.33265817       3.44393655
C        3.69423447      -2.76447944       2.60998652
C        3.14309795      -1.85616460       1.65667806
C        1.78176557      -1.78176557       1.78176557
S        1.16830097      -2.76712815       3.01012615
N        1.58698246      -5.40683481       7.63145073
C        1.59306357      -6.21370536       8.79149788
C        2.59866929      -7.12634147       9.11283017
C        2.50883936      -7.88788486      10.28535678
C        1.41375007      -7.73863187      11.13632358
C        0.40575257      -6.83065252      10.83406271
C        0.50776391      -6.07796354       9.66838500
F       -0.46729348      -5.20126763       9.37665192
H        1.28107681      -3.80853749       5.69244923
H        3.87526019      -4.88277288       4.41557285
H        4.75368594      -2.98167288       2.69077637
H        3.72290795      -1.30233158       0.92882967
H        0.78864550      -4.78499509       7.56144334
H        3.46682418      -7.26966885       8.47748602
H        3.30157713      -8.59473586      10.51927084
H       -0.45403388      -6.69846469      11.48202993
C        1.32667629      -8.53102701      12.33554337
C        1.25375201      -9.19465794      13.33988994
Br       1.13583961     -10.26769302      14.96383341
C       -0.00445707       0.01189536      -1.78238275
H       -0.66409135       0.67374010      -2.43557963
H        0.65740317      -0.63156657      -2.45157240
C       -0.90989263      -0.90692880      -0.91072765
C        0.90977584       0.90977584      -0.90977584
C       -0.00465871       1.77757030       0.00794375
H       -0.66225468       2.44313916      -0.64384735
H        0.64322798       2.43503045       0.67728295
C       -1.78241447       0.00034974      -0.00472694
H       -2.45427497      -0.65498947       0.64260836
H       -2.43311707       0.67328779      -0.65473579
C       -0.91132561       0.90220522       0.91563759
C       -0.01476271      -0.02253852       1.78660255
H       -0.67934791      -0.69751639       2.42135241
H        0.63392994       0.61504881       2.47327442
C        0.01484550      -1.77751727      -0.01636693
H        0.67870853      -2.42144646      -0.68295456
H       -0.62264859      -2.45592969       0.64226336
C        1.78714474       0.01002794       0.00389507
H        2.44202412       0.67113390       0.66197326
H        2.45385902      -0.65136977      -0.64189061
C        0.91606151      -0.90478549       0.90901405
