113
Properties=species:S:1:pos:R:3 pbc="F F F"
C        0.00000000       0.00000000       0.00000000
O        6.14101759       4.38292318      -2.88320179
C        5.88336395       4.21325836      -1.69917871
C        4.67278541       3.45819683      -1.27369181
C        3.84459360       2.95907258      -2.20443683
C        2.64641152       2.25048970      -1.89066728
C        1.51241644       2.14224649      -2.68432542
C        0.47911137       1.35655753      -2.09055965
C        0.87186155       0.87186155      -0.87186155
S        2.43541516       1.34341068      -0.43701736
N        6.61748706       4.65644259      -0.62162627
C        7.81801874       5.40125489      -0.64928112
C        8.43753691       5.85680538      -1.81378658
C        9.63356760       6.58231964      -1.73648169
C       10.21142844       6.85170755      -0.49585745
C        9.60511521       6.40980649       0.67416596
C        8.41606143       5.69295041       0.58461146
F        7.83121401       5.26556602       1.71586603
H        4.48694824       3.35175057      -0.21365265
H        4.05832162       3.12571391      -3.25985832
H        1.42124691       2.62303445      -3.65214176
H       -0.48545867       1.16559233      -2.54422347
H        6.29551775       4.42083232       0.31097822
H        8.01818073       5.66904734      -2.79703891
H       10.10259573       6.92876705      -2.65450899
H       10.03709070       6.60870984       1.64905186
C       11.44468169       7.59193320      -0.42691971
C       12.47753129       8.21187218      -0.36918435
Br      14.14756173       9.21426107      -0.27583116
O       -2.60566871      -5.16671012      -5.63476373
C       -1.61263211      -4.45767639      -5.72549251
C       -1.26864409      -3.47245218      -4.66357777
C       -2.06452684      -3.35419529      -3.58938088
C       -1.83175732      -2.41685853      -2.53895265
C       -2.78296859      -1.86366627      -1.69235349
C       -2.23142942      -0.95872429      -0.73607484
C       -0.87186155      -0.87186155      -0.87186155
S       -0.26054851      -1.84178003      -2.11351467
N       -0.69601978      -4.44634634      -6.75318980
C       -0.70512158      -5.24355468      -7.91987849
C       -1.70575714      -6.16189356      -8.24047816
C       -1.61943668      -6.91286889      -9.42006336
C       -0.53280977      -6.74734976     -10.27883392
C        0.47009607      -5.83348848      -9.97736333
C        0.37161128      -5.09141217      -8.80459948
F        1.34175136      -4.20902102      -8.51364434
H       -0.38716380      -2.86173413      -4.80345353
H       -2.96150469      -3.96830059      -3.51408857
H       -3.84121617      -2.08906549      -1.76614146
H       -2.80969943      -0.41585616       0.00119847
H        0.09767252      -3.81843127      -6.68461311
H       -2.56732486      -6.31778755      -7.59915457
H       -2.40819841      -7.62437786      -9.65329550
H        1.32328272      -5.68869843     -10.63133296
C       -0.44921252      -7.52897562     -11.48534646
C       -0.37919982      -8.18358728     -12.49580072
Br      -0.26599522      -9.24203896     -14.12961979
O       -5.82131134       4.92757016       2.65826107
C       -5.38339911       4.89621435       1.51618756
C       -4.24502684       4.00900293       1.15064428
C       -3.68369786       3.23328803       2.09111712
C       -2.57043504       2.37650048       1.84063298
C       -1.62781640       1.94639796       2.76477400
C       -0.63606245       1.08693263       2.20323346
C       -0.87186155       0.87186155       0.87186155
S       -2.24136298       1.67788813       0.29659210
N       -5.83536375       5.62293017       0.43726201
C       -6.89386010       6.55883292       0.41586172
C       -7.63647767       6.93617667       1.53547452
C       -8.67462413       7.86846580       1.40927900
C       -8.97176455       8.42291418       0.16431471
C       -8.23891142       8.06205280      -0.96020849
C       -7.20843623       7.13757316      -0.82160901
F       -6.50122219       6.78879454      -1.90910274
H       -3.88963579       4.03317959       0.12953607
H       -4.05621378       3.27333693       3.11434314
H       -1.64049901       2.25012965       3.80579446
H        0.19058262       0.65863238       2.75630737
H       -5.39026334       5.47769012      -0.46258160
H       -7.43460469       6.52872808       2.52093420
H       -9.24316941       8.15012858       2.29257376
H       -8.45286156       8.48133458      -1.93744747
C      -10.04535645       9.37493429       0.04324386
C      -10.94448967      10.17225112      -0.05815298
Br     -12.39831204      11.46144501      -0.22210309
O        2.59527111      -5.24585615       5.56601531
C        1.58162139      -4.56557958       5.64860005
C        1.23918284      -3.56162077       4.60387044
C        2.05930425      -3.39403730       3.55476146
C        1.82898734      -2.43534547       2.52323569
C        2.78678680      -1.83516808       1.71703348
C        2.23633760      -0.91965861       0.77023233
C        0.87186155      -0.87186155       0.87186155
S        0.25457771      -1.89018530       2.07108019
N        0.63860220      -4.60556545       6.65138827
C        0.63863799      -5.43315252       7.79676424
C        1.65477013      -6.33338028       8.11997845
C        1.55787926      -7.11759406       9.27689562
C        0.44523999      -7.00340890      10.11034455
C       -0.57353898      -6.10822577       9.80606894
C       -0.46443198      -5.33277054       8.65606181
F       -1.44990084      -4.46846399       8.36235085
H        0.33835963      -2.97800170       4.73599012
H        2.97402420      -3.98236345       3.48750620
H        3.84840006      -2.03484509       1.81317796
H        2.81888629      -0.34242335       0.06304749
H       -0.16952937      -3.99690782       6.57799342
H        2.53659141      -6.44961276       7.49806281
H        2.35903254      -7.81431479       9.51252443
H       -1.44701741      -6.00320928      10.44055680
C        0.35118865      -7.81890043      11.29344552
C        0.27242064      -8.50187459      12.28429258
Br       0.14505944      -9.60618604      13.88640848
