113
Properties=species:S:1:pos:R:3 pbc="F F F"
C        0.00000000       0.00000000       0.00000000
O        2.42461130       2.55248886      -6.76027291
C        1.59066242       1.71624530      -6.43959506
C        1.34718213       1.38200949      -5.01017032
C        2.00954620       2.04734205      -4.05368610
C        1.76688488       1.77805684      -2.67913729
C        2.35535186       2.36503503      -1.56510422
C        1.77916615       1.78423116      -0.40922923
C        0.86715915       0.86715915      -0.86715915
O        0.85289909       0.85253067      -2.22316759
N        0.77253372       0.99643504      -7.28212107
C        0.67826833       1.10652900      -8.68711139
C        1.43098944       1.98713542      -9.46393439
C        1.24551937       2.03679554     -10.85210733
C        0.30772317       1.20508767     -11.46454561
C       -0.44707513       0.31750033     -10.70663805
C       -0.25346878       0.27823278      -9.32924723
F       -0.98824608      -0.57577917      -8.59740173
H        0.62039697       0.61545184      -4.77150402
H        2.73382179       2.81729593      -4.30901067
H        3.11563140       3.13458777      -1.59156934
H        2.00272388       2.01158221       0.62365313
H        0.13698114       0.31993656      -6.87213702
H        2.16773992       2.65240153      -9.02453461
H        1.83826872       2.73299727     -11.44151664
H       -1.18180558      -0.33804763     -11.16222938
C        0.11781756       1.26871833     -12.89054947
C       -0.04122839       1.32200900     -14.08482769
Br      -0.29839224       1.40817551     -16.01587458
O       -4.93002481      -5.70802754      -1.09932071
C       -4.37930779      -5.26839551      -0.09879948
C       -3.40774557      -4.14475696      -0.18685941
C       -3.17352766      -3.56482704      -1.37221965
C       -2.28197562      -2.46280500      -1.47929839
C       -1.92399550      -1.74626901      -2.61522659
C       -1.02239871      -0.72706301      -2.22316483
C       -0.86715915      -0.86715915      -0.86715915
O       -1.61345200      -1.90374396      -0.41140139
N       -4.55864104      -5.69199878       1.19954999
C       -5.45353404      -6.68155376       1.66317907
C       -6.31770047      -7.41157098       0.84721220
C       -7.18628717      -8.35705198       1.40891691
C       -7.19060056      -8.57381489       2.78705899
C       -6.33225280      -7.85939692       3.61458648
C       -5.47500160      -6.92335440       3.04434478
F       -4.65042266      -6.22922457       3.84627076
H       -2.92148854      -3.80507156       0.71920727
H       -3.67244656      -3.91479887      -2.27288296
H       -2.28393860      -1.94087091      -3.61697899
H       -0.55123246       0.01404313      -2.85346363
H       -4.01693693      -5.24259943       1.93048164
H       -6.34658437      -7.26946717      -0.22862453
H       -7.85650959      -8.91392348       0.75765045
H       -6.31916055      -8.01190837       4.68869274
C       -8.09233382      -9.54134275       3.35659122
C       -8.84753542     -10.35164734       3.83357446
Br     -10.06863254     -11.66184132       4.60481602
O       -2.18866191       6.73854062       2.81017053
C       -1.30948161       6.41369670       2.02332447
C       -1.07519423       4.98511868       1.67904902
C       -1.87598148       4.04138403       2.19320883
C       -1.70162648       2.67312662       1.84932591
C       -2.43109434       1.57208053       2.28231623
C       -1.89883890       0.42025178       1.65353587
C       -0.86715915       0.86715915       0.86715915
O       -0.73785898       2.21257174       0.97816663
N       -0.44993724       7.25240810       1.34874450
C       -0.43298682       8.66451957       1.37440234
C       -1.31059045       9.45284496       2.11862384
C       -1.22674371      10.85037799       2.05730055
C       -0.26448265      11.46056291       1.25231090
C        0.62182094      10.69054296       0.50834122
C        0.52782044       9.30397788       0.57785379
F        1.38115867       8.56121224      -0.14667709
H       -0.26809364       4.73905488       1.00020431
H       -2.68482867       4.30449812       2.87080159
H       -3.26198680       1.60504950       2.97475221
H       -2.23130920      -0.60259911       1.76194288
H        0.24512292       6.83694305       0.73723458
H       -2.07483680       9.01597770       2.75386156
H       -1.92242753      11.44926815       2.64108695
H        1.37759445      11.14419611      -0.12422548
C       -0.19092738      12.89728330       1.18887468
C       -0.12932484      14.10053662       1.13574684
Br      -0.02971875      16.04609548       1.04984362
O        6.76117711      -2.50309901       2.47309694
C        6.44028131      -1.67876084       1.62746064
C        5.00956941      -1.41483239       1.31496013
C        4.05369305      -2.04696258       2.00991871
C        2.67903421      -1.78368718       1.76135761
C        1.56555445      -2.34044236       2.37949429
C        0.40979122      -1.75353426       1.80930107
C        0.86715915      -0.86715915       0.86715915
O        2.22269305      -0.87845122       0.82745309
N        7.28407345      -0.88979172       0.87722467
C        8.69236187      -0.81973632       0.95981054
C        9.47156076      -1.57056628       1.83993221
C       10.86358005      -1.41012983       1.86071236
C       11.47746699      -0.49929249       1.00059697
C       10.71708496       0.25313357       0.11311185
C        9.33588895       0.08455280       0.10267508
F        8.60181960       0.81709330      -0.75134983
H        4.76999505      -0.69787493       0.53948284
H        4.31002923      -2.76165974       2.78843942
H        1.59244290      -3.08687199       3.16247363
H       -0.62259160      -1.95359924       2.05964531
H        6.87324907      -0.25919368       0.19661197
H        9.03122974      -2.28669852       2.52674781
H       11.45491912      -2.00092360       2.55693991
H       11.17374620       0.96712245      -0.56424757
C       12.90764592      -0.33487160       1.03456784
C       14.10542076      -0.19716910       1.06301844
Br      16.04212139       0.02548419       1.10902065
