134
Properties=species:S:1:pos:R:3 pbc="F F F"
O        3.33451532       3.46239288      -7.67017693
C        2.50056645       2.62614933      -7.34949908
C        2.25708615       2.29191352      -5.92007434
C        2.91945022       2.95724607      -4.96359013
C        2.67678890       2.68796086      -3.58904132
C        3.26525588       3.27493905      -2.47500824
C        2.68907017       2.69413519      -1.31913326
C        1.77706318       1.77706318      -1.77706318
O        1.76280312       1.76243469      -3.13307162
N        1.68243775       1.90633906      -8.19202510
C        1.58817235       2.01643303      -9.59701542
C        2.34089346       2.89703944     -10.37383842
C        2.15542340       2.94669957     -11.76201136
C        1.21762720       2.11499170     -12.37444963
C        0.46282889       1.22740435     -11.61654207
C        0.65643524       1.18813680     -10.23915126
F       -0.07834206       0.33412485      -9.50730575
H        1.53030099       1.52535586      -5.68140804
H        3.64372582       3.72719995      -5.21891469
H        4.02553543       4.04449180      -2.50147336
H        2.91262790       2.92148623      -0.28625090
H        1.04688516       1.22984059      -7.78204104
H        3.07764395       3.56230555      -9.93443863
H        2.74817274       3.64290129     -12.35142066
H       -0.27190156       0.57185640     -12.07213340
C        1.02772158       2.17862235     -13.80045349
C        0.86867563       2.23191302     -14.99473172
Br       0.61151178       2.31807953     -16.92577861
O       -5.86320509      -6.59848321      -2.00539684
C       -5.31532126      -6.15656703      -1.00432656
C       -4.33764070      -5.03830653      -1.09312678
C       -4.09450598      -4.46558523      -2.28019521
C       -3.19684722      -3.36863340      -2.38831046
C       -2.82951006      -2.65968335      -3.52600976
C       -1.92474558      -1.64306460      -3.13452844
C       -1.77706318      -1.77706318      -1.77706318
O       -2.53089408      -2.80754404      -1.31987131
N       -5.50335004      -6.57266959       0.29521771
C       -6.40557848      -7.55533203       0.75928970
C       -7.26930776      -8.28510823      -0.05735534
C       -8.14550196      -9.22333315       0.50470079
C       -8.15786895      -9.43307912       1.88387954
C       -7.30009564      -8.71881379       2.71213412
C       -6.43524145      -7.79001320       2.14153135
F       -5.61120981      -7.09599492       2.94411618
H       -3.85424548      -4.69648820      -0.18633121
H       -4.59064218      -4.81759843      -3.18159985
H       -3.18537591      -2.85754459      -4.52858008
H       -1.44665208      -0.90755174      -3.76616121
H       -4.96306895      -6.12230815       1.02661031
H       -7.29204134      -8.14831869      -1.13402811
H       -8.81524514      -9.78011141      -0.14713815
H       -7.29319735      -8.86593978       3.78704889
C       -9.06736017     -10.39314338       2.45370612
C       -9.82905906     -11.19719720       2.93093589
Br     -11.06066175     -12.49728423       3.70257606
O       -2.91259203       7.60787804       3.94661507
C       -2.01158610       7.27729891       3.18732985
C       -1.82877854       5.85683277       2.78346270
C       -2.69845013       4.93095846       3.21087783
C       -2.57257239       3.57365327       2.80756542
C       -3.37453451       2.49114373       3.14952493
C       -2.86700780       1.34540656       2.48992426
C       -1.77706318       1.77706318       1.77706318
O       -1.58943265       3.10747268       1.96140410
N       -1.08027009       8.10311231       2.59741951
C       -0.99725952       9.50976445       2.69459683
C       -1.87243872      10.30466894       3.43466366
C       -1.71902858      11.69757567       3.44753007
C       -0.68961167      12.29648574       2.72097112
C        0.19510755      11.51939476       1.98248810
C        0.03168096      10.13754777       1.97785649
F        0.88384021       9.38837028       1.25855847
H       -1.00133289       5.60330350       2.13242851
H       -3.52676179       5.20164442       3.86143425
H       -4.23656515       2.53263286       3.80230258
H       -3.25292516       0.33649734       2.53094253
H       -0.37605488       7.68298990       1.99972202
H       -2.68753720       9.87683760       4.01001333
H       -2.41372337      12.30203769       4.02673363
H        1.00242067      11.96426893       1.41023999
C       -0.54449239      13.72910250       2.73320253
C       -0.42295500      14.92891904       2.74344634
Br      -0.22643930      16.86892090       2.76000971
O        7.66031491      -3.18857578       3.61819445
C        7.33907486      -2.33672296       2.80041704
C        5.91428435      -2.13115548       2.42363418
C        4.95972151      -2.84983474       3.03073016
C        3.58751260      -2.64551625       2.72076224
C        2.47566027      -3.29304258       3.24650033
C        1.32067057      -2.73681827       2.64484978
C        1.77706318      -1.77706318       1.77706318
O        3.13137082      -1.71521245       1.81172616
N        8.17611041      -1.46447096       2.14022054
C        9.57213023      -1.32550073       2.30398984
C       10.34448275      -2.08198525       3.18530332
C       11.72252376      -1.85033441       3.29127615
C       12.32933988      -0.86252834       2.51520031
C       11.57604680      -0.10306133       1.62766718
C       10.20870627      -0.34283775       1.53217928
F        9.48099707       0.39633042       0.67842190
H        5.67638858      -1.38599154       1.67468478
H        5.21404652      -3.59203603       3.78375792
H        2.50272109      -4.07913464       3.98964486
H        0.28922774      -3.00413761       2.82699969
H        7.76726596      -0.81961346       1.47188737
H        9.90903583      -2.85700171       3.80835060
H       12.30834525      -2.44692109       3.98722835
H       12.02740027       0.67015022       1.01483820
C       13.74451987      -0.62563650       2.63664105
C       14.92973311      -0.42723959       2.73834767
Br      16.84612268      -0.10644857       2.90279867
C       -0.00445707       0.01189536      -1.78238275
H       -0.66409135       0.67374010      -2.43557963
H        0.65740317      -0.63156657      -2.45157240
C       -0.90989263      -0.90692880      -0.91072765
C        0.90977584       0.90977584      -0.90977584
C       -0.00465871       1.77757030       0.00794375
H       -0.66225468       2.44313916      -0.64384735
H        0.64322798       2.43503045       0.67728295
C       -1.78241447       0.00034974      -0.00472694
H       -2.45427497      -0.65498947       0.64260836
H       -2.43311707       0.67328779      -0.65473579
C       -0.91132561       0.90220522       0.91563759
C       -0.01476271      -0.02253852       1.78660255
H       -0.67934791      -0.69751639       2.42135241
H        0.63392994       0.61504881       2.47327442
C        0.01484550      -1.77751727      -0.01636693
H        0.67870853      -2.42144646      -0.68295456
H       -0.62264859      -2.45592969       0.64226336
C        1.78714474       0.01002794       0.00389507
H        2.44202412       0.67113390       0.66197326
H        2.45385902      -0.65136977      -0.64189061
C        0.91606151      -0.90478549       0.90901405
