105
Properties=species:S:1:pos:R:3 pbc="F F F"
C        0.00000000       0.00000000       0.00000000
O        2.42461130       2.55248886      -6.76027291
C        1.59066242       1.71624530      -6.43959506
C        1.34718213       1.38200949      -5.01017032
C        2.00954620       2.04734205      -4.05368610
C        1.76688488       1.77805684      -2.67913729
C        2.35535186       2.36503503      -1.56510422
C        1.77916615       1.78423116      -0.40922923
C        0.86715915       0.86715915      -0.86715915
O        0.85289909       0.85253067      -2.22316759
N        0.77253372       0.99643504      -7.28212107
C        0.67826833       1.10652900      -8.68711139
C        1.43098944       1.98713542      -9.46393439
C        1.24551937       2.03679554     -10.85210733
C        0.30772317       1.20508767     -11.46454561
Br       0.05853120       1.28858309     -13.33573160
C       -0.44707513       0.31750033     -10.70663805
C       -0.25346878       0.27823278      -9.32924723
F       -0.98824608      -0.57577917      -8.59740173
H        0.62039697       0.61545184      -4.77150402
H        2.73382179       2.81729593      -4.30901067
H        3.11563140       3.13458777      -1.59156934
H        2.00272388       2.01158221       0.62365313
H        0.13698114       0.31993656      -6.87213702
H        2.16773992       2.65240153      -9.02453461
H        1.83826872       2.73299727     -11.44151664
H       -1.18180558      -0.33804763     -11.16222938
O       -4.99472035      -5.65346514      -1.08918757
C       -4.45188018      -5.20742243      -0.08720017
C       -3.46331896      -4.09886398      -0.17717900
C       -3.20431098      -3.53916516      -1.36709820
C       -2.29578471      -2.45136857      -1.47692572
C       -1.91179118      -1.75612195      -2.61757798
C       -1.00138841      -0.74417628      -2.22706186
C       -0.86715915      -0.86715915      -0.86715915
O       -1.63440866      -1.88661345      -0.40757525
N       -4.65537641      -5.60998953       1.21427610
C       -5.57063877      -6.58023053       1.67896057
C       -6.43357486      -7.30958987       0.86110548
C       -7.32328364      -8.23474109       1.42360248
C       -7.34997448      -8.43182667       2.80444469
Br      -8.56148079      -9.67396845       3.55260336
C       -6.49323935      -7.71781781       3.63399392
C       -5.61487833      -6.80206570       3.06293280
F       -4.79183493      -6.10823166       3.86669012
H       -2.98502274      -3.75318685       0.73085677
H       -3.69548831      -3.89487261      -2.26976746
H       -2.26039798      -1.95987238      -3.62151815
H       -0.51096317      -0.01876799      -2.86092180
H       -4.11763326      -5.15788420       1.94646275
H       -6.44536859      -7.18238997      -0.21691750
H       -7.99216158      -8.79136591       0.77074487
H       -6.49735771      -7.85522669       4.71020824
O       -2.15450301       6.73278078       2.85008928
C       -1.27130687       6.40709045       2.06810547
C       -1.04645269       4.97956151       1.71334774
C       -1.85991269       4.03845612       2.21220553
C       -1.69446450       2.67176621       1.85784830
C       -2.43726737       1.57344173       2.27478200
C       -1.90955900       0.42250086       1.64056668
C       -0.86715915       0.86715915       0.86715915
O       -0.72712873       2.21036645       0.99110218
N       -0.39859960       7.24406136       1.40842888
C       -0.36957984       8.65569250       1.44663639
C       -1.24678923       9.44518615       2.19008388
C       -1.15024116      10.84240973       2.14177135
C       -0.17566944      11.45110493       1.35058209
Br      -0.06201137      13.33608582       1.28474869
C        0.71039643      10.67983671       0.60762296
C        0.60371895       9.29359811       0.66413206
F        1.45688855       8.54970242      -0.05943740
H       -0.23559345       4.73233799       1.03942139
H       -2.67235893       4.30275486       2.88501460
H       -3.27389157       1.60767735       2.96021959
H       -2.25186264      -0.59829531       1.73708563
H        0.29816124       6.82784741       0.79936855
H       -2.02036110       9.00953412       2.81478084
H       -1.84578490      11.44228165       2.72471607
H        1.47561882      11.13232451      -0.01432952
O        6.75963678      -2.40637429       2.57136199
C        6.43895919      -1.57019056       1.73735303
C        5.00995022      -1.33145585       1.39795586
C        4.05348369      -2.00085004       2.05624061
C        2.67907165      -1.76297919       1.78202817
C        1.56507716      -2.35881949       2.36159446
C        0.40923313      -1.78512644       1.77826697
C        0.86715915      -0.86715915       0.86715915
O        2.22314333      -0.84695781       0.85849622
N        7.28102769      -0.74529148       1.02477067
C        8.68510388      -0.64541697       1.14138787
C        9.46137208      -1.39859037       2.02209680
C       10.84849611      -1.20732271       2.07860343
C       11.46044527      -0.26326859       1.25364260
Br      13.33014915      -0.00633382       1.34636292
C       10.70311336       0.49209434       0.36604422
C        9.32676163       0.29269205       0.31994164
F        8.59543292       1.02800115      -0.53405530
H        4.77144712      -0.60238170       0.63352401
H        4.30861911      -2.72735726       2.82415203
H        1.59151593      -3.12232026       3.12795232
H       -0.62364196      -2.01414696       2.00014796
H        6.87121686      -0.10858287       0.34925499
H        9.02230436      -2.14012788       2.68224382
H       11.43745704      -1.80053692       2.77478866
H       11.15833900       1.23163973      -0.28432310
