142
Properties=species:S:1:pos:R:3 pbc="F F F"
C        1.79267330       1.79267330      -1.79267330
C        2.74368410       2.62601931      -1.20554507
C        3.55430588       3.42835313      -2.01428214
C        3.42958329       3.38103381      -3.40759440
C        2.45047158       2.55810124      -3.98276021
C        1.63570471       1.75817905      -3.17743285
C        4.25037463       4.22938131      -4.31528281
O        3.70980385       4.71253088      -5.31400963
N        5.58622495       4.46303433      -4.06203382
N        6.35017827       3.77326566      -3.07432126
C        7.65317149       4.07345583      -3.18480202
H        8.07771456       4.68481888      -3.97730914
C        8.61095391       3.60964374      -2.16278418
C        9.97362786       3.89831910      -2.34001068
C       10.92211441       3.51135754      -1.39054843
C       10.51989321       2.82772776      -0.24581512
C        9.16947257       2.53267714      -0.06164292
C        8.22031221       2.91658947      -1.00927793
H        2.87324111       2.66093616      -0.12820650
H        4.29367170       4.08581341      -1.56321722
H        2.33807116       2.53993707      -5.06426641
H        0.89333988       1.11732941      -3.64126097
H        6.08224836       5.01663257      -4.74633020
H       10.29584557       4.43531709      -3.22853171
H       11.96900763       3.74902242      -1.54866412
H       11.25819537       2.53268435       0.49222983
H        7.16849597       2.68760082      -0.85847494
C        8.75469342       1.82975165       1.12471875
C        8.40731588       1.24105155       2.11829665
Br       7.84563578       0.28917328       3.72482808
C       -1.79267330      -1.79267330      -1.79267330
C       -2.83924377      -2.51489802      -1.22110669
C       -3.64939123      -3.31713590      -2.03041403
C       -3.42754579      -3.37967675      -3.41098896
C       -2.35457910      -2.66884723      -3.96790668
C       -1.54025140      -1.86953723      -3.16152797
C       -4.24445692      -4.23419876      -4.31638306
O       -3.67404750      -4.82407820      -5.23821866
N       -5.60781744      -4.35789286      -4.14558280
N       -6.38475545      -3.54809578      -3.26491395
C       -7.69563517      -3.76663694      -3.44915722
H       -8.10884083      -4.40379941      -4.22720235
C       -8.68417609      -3.16607020      -2.53313553
C      -10.04908802      -3.37396130      -2.78890833
C      -11.02904928      -2.85576376      -1.93920733
C      -10.65664656      -2.11960142      -0.81718811
C       -9.30393454      -1.90403281      -0.55582528
C       -8.32320502      -2.41910908      -1.40386550
H       -3.04361325      -2.46263535      -0.15613517
H       -4.46337994      -3.88854948      -1.59077292
H       -2.16821601      -2.73692130      -5.03713733
H       -0.72362094      -1.31578212      -3.61252720
H       -6.09527931      -4.92487943      -4.82505239
H      -10.34857479      -3.95102436      -3.66009522
H      -12.07732931      -3.03288125      -2.15648363
H      -11.41982774      -1.72244727      -0.15637488
H       -7.27016144      -2.25148925      -1.19292103
C       -8.92045210      -1.14649690       0.60722268
C       -8.59928556      -0.51206057       1.58127535
Br      -8.07998643       0.51376931       3.15623613
C       -1.79267330       1.79267330       1.79267330
C       -1.51898860       3.15539002       1.90086985
C       -2.33059186       3.96256450       2.70378480
C       -3.42635983       3.41272649       3.37912518
C       -3.67343103       2.03567921       3.28222278
C       -2.86187572       1.22523872       2.48420217
C       -4.30996759       4.22040450       4.26466666
O       -4.71888893       3.70743928       5.31001614
N       -4.67943022       5.50574708       3.92611580
N       -4.45090666       6.09816284       2.64869568
C       -5.08223486       7.27800547       2.55118901
H       -5.75139710       7.68105296       3.30739252
C       -4.85078440       8.14937235       1.38322508
C       -5.56928274       9.35219466       1.29048024
C       -5.36936030      10.23112116       0.22353891
C       -4.44439412       9.91865323      -0.76961126
C       -3.72809258       8.72489627      -0.68919621
C       -3.92711991       7.84449484       0.37456486
H       -0.68829799       3.60686740       1.36721839
H       -2.11932222       5.02501192       2.79836820
H       -4.51075644       1.60512129       3.82639691
H       -3.07708728       0.16450379       2.41033919
H       -5.31220184       5.97232583       4.56068346
H       -6.29014359       9.60603358       2.06351721
H       -5.93451094      11.15622208       0.17596116
H       -4.28772789      10.60549277      -1.59457077
H       -3.36292898       6.91734069       0.43430205
C       -2.76879781       8.40546113      -1.71453262
C       -1.96538845       8.13793420      -2.57325187
Br      -0.66634346       7.70536578      -3.96172825
C        1.79267330      -1.79267330       1.79267330
C        1.36724696      -3.07629019       2.13171133
C        2.17814751      -3.88464838       2.93414526
C        3.42121658      -3.41896577       3.37802914
C        3.82398714      -2.11598587       3.05136001
C        3.01425921      -1.30380998       2.25324742
C        4.31472374      -4.22782455       4.25249045
O        4.93298943      -3.65155197       5.15180295
N        4.46519093      -5.58565511       4.06044707
N        3.98011730      -6.29552175       2.92212613
C        4.43595640      -7.55738777       2.91808516
H        5.15148785      -7.95440637       3.63394836
C        3.92859586      -8.52667702       1.92810894
C        4.46775006      -9.82316681       1.92104077
C        4.00506155     -10.79166273       1.02729609
C        2.99259195     -10.47633105       0.12451308
C        2.45265162      -9.19061776       0.12052325
C        2.91418612      -8.22094725       1.01104624
H        0.41734588      -3.46606617       1.77897172
H        1.85001988      -4.88443662       3.20824584
H        4.77927903      -1.74636864       3.41662697
H        3.34905158      -0.30365074       1.99922794
H        5.11927570      -6.05512691       4.67080851
H        5.25535829     -10.07916565       2.62517044
H        4.43549633     -11.78762027       1.04357758
H        2.63187526     -11.23198611      -0.56521148
H        2.48672169      -7.22157437       1.00627566
C        1.40269914      -8.86753373      -0.81050655
C        0.52336393      -8.59695086      -1.59024401
Br      -0.89844672      -8.15944125      -2.85101353
C       -0.00445707       0.01189536      -1.78238275
H       -0.66409135       0.67374010      -2.43557963
H        0.65740317      -0.63156657      -2.45157240
C       -0.90989263      -0.90692880      -0.91072765
C        0.90977584       0.90977584      -0.90977584
C       -0.00465871       1.77757030       0.00794375
H       -0.66225468       2.44313916      -0.64384735
H        0.64322798       2.43503045       0.67728295
C       -1.78241447       0.00034974      -0.00472694
H       -2.45427497      -0.65498947       0.64260836
H       -2.43311707       0.67328779      -0.65473579
C       -0.91132561       0.90220522       0.91563759
C       -0.01476271      -0.02253852       1.78660255
H       -0.67934791      -0.69751639       2.42135241
H        0.63392994       0.61504881       2.47327442
C        0.01484550      -1.77751727      -0.01636693
H        0.67870853      -2.42144646      -0.68295456
H       -0.62264859      -2.45592969       0.64226336
C        1.78714474       0.01002794       0.00389507
H        2.44202412       0.67113390       0.66197326
H        2.45385902      -0.65136977      -0.64189061
C        0.91606151      -0.90478549       0.90901405
