121
Properties=species:S:1:pos:R:3 pbc="F F F"
C        0.00000000       0.00000000       0.00000000
C        0.88276928       0.88276928      -0.88276928
C        1.83378007       1.71611529      -0.29564104
C        2.64440186       2.51844911      -1.10437812
C        2.51967926       2.47112978      -2.49769038
C        1.54056755       1.64819721      -3.07285618
C        0.72580069       0.84827502      -2.26752882
C        3.34047060       3.31947729      -3.40537878
O        2.79989983       3.80262685      -4.40410560
N        4.67632092       3.55313031      -3.15212980
N        5.44027424       2.86336163      -2.16441724
C        6.74326746       3.16355180      -2.27489799
H        7.16781054       3.77491486      -3.06740511
C        7.70104988       2.69973972      -1.25288015
C        9.06372383       2.98841507      -1.43010666
C       10.01221038       2.60145351      -0.48064440
C        9.60998918       1.91782374       0.66408890
C        8.25956855       1.62277311       0.84826110
C        7.31040818       2.00668544      -0.09937391
H        1.96333709       1.75103214       0.78169753
H        3.38376768       3.17590939      -0.65331320
H        1.42816713       1.63003305      -4.15436238
H       -0.01656415       0.20742538      -2.73135695
H        5.17234434       4.10672854      -3.83642618
H        9.38594154       3.52541307      -2.31862769
H       11.05910361       2.83911840      -0.63876009
H       10.34829135       1.62278033       1.40213386
H        6.25859194       1.77769679       0.05142909
C        7.84478940       0.91984763       2.03462277
C        7.49741186       0.33114753       3.02820067
Br       6.93573176      -0.62073074       4.63473210
C       -0.88276928      -0.88276928      -0.88276928
C       -0.88983013      -2.26376255      -0.69194372
C       -1.70200386      -3.06926384      -1.49596138
C       -2.52177264      -2.49332572      -2.47340106
C       -2.48411591      -1.10557197      -2.67193307
C       -1.67044493      -0.29795970      -1.87319990
C       -3.38893823      -3.30432450      -3.37206394
O       -3.49170804      -2.96169584      -4.55322841
N       -4.07571883      -4.40437618      -2.90148602
N       -4.20361525      -4.74283273      -1.52160513
C       -5.07795482      -5.74704994      -1.35671250
H       -5.67554262      -6.17876139      -2.15582650
C       -5.24318530      -6.37749104      -0.03299342
C       -6.20540043      -7.38966819       0.11282305
C       -6.38499761      -8.04332875       1.33401807
C       -5.60180312      -7.69291907       2.43099817
C       -4.64576625      -6.68646263       2.29814831
C       -4.46554810      -6.03086462       1.07994518
H       -0.27948994      -2.72909859       0.07591683
H       -1.70776032      -4.14776346      -1.35746649
H       -3.10344528      -0.66143250      -3.44768478
H       -1.66524163       0.77518293      -2.03215949
H       -4.67292573      -4.87770650      -3.56486682
H       -6.81812978      -7.67247680      -0.73937573
H       -7.13298399      -8.82466076       1.42066264
H       -5.74020012      -8.20566740       3.37692970
H       -3.71593598      -5.24997055       0.98104688
C       -3.83367471      -6.32849133       3.43215179
C       -3.15354805      -6.02869036       4.38187970
Br      -2.05384077      -5.54393756       5.91750941
C       -0.88276928       0.88276928       0.88276928
C       -1.05850794       2.22748119       0.55954727
C       -1.87075517       3.03216794       1.36430597
C       -2.52341754       2.48837525       2.47670663
C       -2.31592288       1.14080872       2.80488934
C       -1.50144770       0.33475455       2.00540228
C       -3.38139564       3.30340087       3.38053016
O       -3.33017688       3.08274959       4.59370581
N       -4.22640512       4.27323990       2.88193602
N       -4.52481255       4.44558481       1.49765575
C       -5.51501922       5.33547397       1.33122407
H       -6.07484971       5.79086893       2.14441187
C       -5.87658957       5.79911047      -0.02203028
C       -6.95272385       6.69034283      -0.16082111
C       -7.32099122       7.18668346      -1.41336639
C       -6.61554999       6.79752050      -2.54934647
C       -5.54741876       5.90993335      -2.42327155
C       -5.17861951       5.41141179      -1.17356376
H       -0.58048236       2.66413029      -0.31194094
H       -2.00720831       4.08345408       1.12232787
H       -2.80437170       0.72510559       3.68308528
H       -1.36412015      -0.70906252       2.26716056
H       -4.80367138       4.75509357       3.55673411
H       -7.50615442       7.00272256       0.72110532
H       -8.15432180       7.87695925      -1.49429895
H       -6.90079601       7.18841080      -3.52026899
H       -4.34252847       4.72305999      -1.08072881
C       -4.81619463       5.51209623      -3.59827661
C       -4.20379442       5.17890764      -4.58234335
Br      -3.21359508       4.64016988      -6.17349604
C        0.88276928      -0.88276928       0.88276928
C        1.81759506      -1.73344264       0.29449871
C        2.62828867      -2.53579873       1.10314168
C        2.51997539      -2.47138349       2.49714053
C        1.55679892      -1.63093699       3.07388503
C        0.74197243      -0.83090666       2.26872545
C        3.34144577      -3.31874941       3.40513149
O        2.80687524      -3.78444249       4.41531456
N        4.67161222      -3.57042952       3.13953930
N        5.43198761      -2.90056272       2.13550278
C        6.73269278      -3.21430352       2.23472096
H        7.15932185      -3.82150108       3.02930759
C        7.68393871      -2.77295692       1.19677412
C        9.04520637      -3.07511251       1.36192669
C        9.98711858      -2.70968413       0.39750560
C        9.57961235      -2.03444763      -0.75033597
C        8.23058914      -1.72613526      -0.92264383
C        7.28801672      -2.08852769       0.03992312
H        1.93447861      -1.78195564      -0.78376254
H        3.35502512      -3.20666821       0.65129693
H        1.45692865      -1.59932294       4.15631098
H        0.01219568      -0.17646790       2.73355461
H        5.16913081      -4.12190130       3.82446695
H        9.37145315      -3.60570905       2.25282010
H       11.03300256      -2.95745620       0.54652334
H       10.31273920      -1.75615343      -1.49995481
H        6.23719594      -1.84929240      -0.10162869
C        7.81026988      -1.03193111      -2.11218674
C        7.45825249      -0.45053514      -3.10842892
Br       6.88907016       0.48953297      -4.71926827
