138
Properties=species:S:1:pos:R:3 pbc="F F F"
F       12.06540618       3.34800987      -6.21128949
C       10.99672374       3.16944617      -5.42148451
C        9.72144270       3.30478012      -5.95623418
C        8.60714078       3.12076863      -5.13283747
C        8.75810406       2.79819348      -3.77809004
N        7.65179465       2.62920546      -2.93220218
N        6.28063771       2.72028395      -3.32265858
C        5.46826363       2.37390037      -2.31427506
H        5.79720203       2.00604490      -1.34665701
C        4.00655846       2.50222751      -2.49315038
C        3.18121141       1.71029952      -1.68271092
C        1.79295127       1.79295127      -1.79295127
C        1.19989724       2.66944328      -2.69876151
C        2.00767622       3.47280003      -3.50477685
C        3.40044091       3.39123335      -3.40563094
O        4.18110270       4.19430714      -4.20329283
C       10.06436665       2.67190749      -3.27537133
F       10.26227862       2.36540976      -1.98151426
C       11.18223046       2.85322114      -4.08472552
H        9.59137739       3.55235009      -7.00340432
H        7.60601504       3.22447643      -5.54317706
H        7.85780770       2.33272054      -1.98306024
H        3.63425044       1.02016180      -0.97604148
H        0.11899447       2.72729684      -2.77769559
H        5.10716022       3.89227445      -4.00973657
H       12.17605987       2.74904407      -3.67132590
C        1.36504781       4.37297518      -4.42690125
C        0.82684652       5.12687187      -5.19918044
Br      -0.04337945       6.34585906      -6.44789058
F       -2.78190190      -7.17432475     -11.66847890
C       -2.62467271      -6.28996908     -10.67301262
C       -2.95028341      -6.65864837      -9.37352523
C       -2.78850544      -5.73644046      -8.33580098
C       -2.29934080      -4.44809746      -8.58694933
N       -2.14901647      -3.50303936      -7.56114646
N       -2.42422179      -3.72270843      -6.17665003
C       -2.04989202      -2.66888387      -5.43766317
H       -1.54201674      -1.78807367      -5.81981353
C       -2.34698728      -2.66530795      -3.98964112
C       -1.55636778      -1.85126599      -3.16658809
C       -1.79295127      -1.79295127      -1.79295127
C       -2.82343284      -2.53034214      -1.21432706
C       -3.62664034      -3.33683170      -2.02178106
C       -3.39193618      -3.40651319      -3.39885583
O       -4.19668836      -4.20167603      -4.18033828
C       -1.98315831      -4.11368500      -9.91480217
F       -1.51203186      -2.88923142     -10.20793936
C       -2.14029930      -5.02270090     -10.95717692
H       -3.32801307      -7.65314180      -9.16597693
H       -3.04053405      -6.01678261      -7.31635187
H       -1.72637860      -2.61911126      -7.82809862
H       -0.74715751      -1.27553747      -3.60775874
H       -3.00042607      -2.47878688      -0.14477395
H       -3.78117618      -4.14728909      -5.08070598
H       -1.88820492      -4.73854865     -11.96967627
C       -4.68747156      -4.08224571      -1.39520698
C       -5.57591770      -4.70652995      -0.87045119
Br      -7.01245997      -5.71594476      -0.02196545
F      -12.25997522       3.90543717       5.45929316
C      -11.14226577       3.69665485       4.74873378
C       -9.91439421       3.66955134       5.39851146
C       -8.74880161       3.45400418       4.65794108
C       -8.80172329       3.26115526       3.27150903
N       -7.64074692       3.06312970       2.50932567
N       -6.30824974       2.99542637       3.01990413
C       -5.43893432       2.66185885       2.05564588
H       -5.70765041       2.40793994       1.03431359
C       -3.99412063       2.64055207       2.36726365
C       -3.16733865       1.84711801       1.55976519
C       -1.79295127       1.79295127       1.79295127
C       -1.21391763       2.53260487       2.82157954
C       -2.02190560       3.33614341       3.62720408
C       -3.40168646       3.39086984       3.40474891
O       -4.18202629       4.19234728       4.20432909
C      -10.06250887       3.29738812       2.65174849
F      -10.16623896       3.11968750       1.32327618
C      -11.23057761       3.51175975       3.37783976
H       -9.86036278       3.81563813       6.47113088
H       -7.78424118       3.43100564       5.15842171
H       -7.78319992       2.86724265       1.52314592
H       -3.61004491       1.26290303       0.75750578
H       -0.14372949       2.48455905       2.99569836
H       -5.10852728       3.99353544       3.90710852
H      -12.18765749       3.53388163       2.87489072
C       -1.39318899       4.09339808       4.67833718
C       -0.86663882       4.72759886       5.55866116
Br      -0.01525174       5.75304788       6.98207056
F        2.07860901      -9.67883251       9.86726403
C        1.88649382      -8.58467222       9.11648836
C        2.61458684      -8.42382494       7.94404522
C        2.41616168      -7.28242417       7.16216103
C        1.49137881      -6.30118949       7.54181929
N        1.29319462      -5.13998899       6.78001867
N        1.94724684      -4.82726701       5.54906639
C        1.44021645      -3.71286428       5.00335832
H        0.59886179      -3.15158687       5.39945528
C        2.05725422      -3.16997361       3.77470852
C        1.26680968      -2.34741555       2.95999662
C        1.79295127      -1.79295127       1.79295127
C        3.11330937      -2.03440048       1.42039218
C        3.91656367      -2.84198684       2.22670259
C        3.39499892      -3.40752047       3.39478581
O        4.20221153      -4.19596357       4.18052756
C        0.77622414      -6.50033256       8.73508877
F       -0.12140930      -5.58686280       9.14374914
C        0.96502335      -7.63226980       9.52288397
H        3.33183744      -9.17679622       7.63849814
H        2.98135062      -7.14891938       6.24339853
H        0.55640754      -4.51819926       7.09898169
H        0.23420087      -2.15658194       3.23967091
H        3.51438076      -1.59877427       0.51083186
H        3.58894646      -4.53687970       4.88334508
H        0.40020285      -7.76005326      10.43617374
C        5.27876716      -3.06800811       1.81814898
C        6.41961258      -3.25730092       1.47598534
Br       8.26426313      -3.56337139       0.92273566
C       -0.00445707       0.01189536      -1.78238275
H       -0.66409135       0.67374010      -2.43557963
H        0.65740317      -0.63156657      -2.45157240
C       -0.90989263      -0.90692880      -0.91072765
C        0.90977584       0.90977584      -0.90977584
C       -0.00465871       1.77757030       0.00794375
H       -0.66225468       2.44313916      -0.64384735
H        0.64322798       2.43503045       0.67728295
C       -1.78241447       0.00034974      -0.00472694
H       -2.45427497      -0.65498947       0.64260836
H       -2.43311707       0.67328779      -0.65473579
C       -0.91132561       0.90220522       0.91563759
C       -0.01476271      -0.02253852       1.78660255
H       -0.67934791      -0.69751639       2.42135241
H        0.63392994       0.61504881       2.47327442
C        0.01484550      -1.77751727      -0.01636693
H        0.67870853      -2.42144646      -0.68295456
H       -0.62264859      -2.45592969       0.64226336
C        1.78714474       0.01002794       0.00389507
H        2.44202412       0.67113390       0.66197326
H        2.45385902      -0.65136977      -0.64189061
C        0.91606151      -0.90478549       0.90901405
