174
Properties=species:S:1:pos:R:3 pbc="F F F"
C        1.79108781       1.79108781      -1.79108781
C        3.14584689       1.92642161      -1.50288882
C        3.94675804       2.74621377      -2.30491573
C        3.39614495       3.44647991      -3.38756047
C        2.03867681       3.28527067      -3.67368480
C        1.23611418       2.45964022      -2.87786588
N        4.26408562       4.28888958      -4.11658898
C        3.91346315       5.19900073      -5.09661902
O        2.77645330       5.40712052      -5.51261467
C        5.06952693       6.00738059      -5.67526698
H        4.61878710       6.74853448      -6.34753970
C        6.06504358       5.14502795      -6.42545455
C        7.17866714       4.92499402      -5.43203235
O        8.03801284       4.07543268      -5.59345605
N        7.01262884       5.82919209      -4.37194773
C        5.88276602       6.70354237      -4.60551907
C        7.89877899       6.00572285      -3.26584323
C        9.05193100       5.22472336      -3.10855977
C        9.91603820       5.40768596      -2.02031036
C        9.63214396       6.37483548      -1.06525140
C        8.49521220       7.16238863      -1.19304587
C        7.63963469       6.98063058      -2.28801748
H        3.58723409       1.40613851      -0.65673816
H        5.00133634       2.84072859      -2.05602097
H        1.56740078       3.78368195      -4.51544110
H        0.18115579       2.35261579      -3.11794507
H        5.23303047       4.26445881      -3.81729730
H        6.47942938       5.67620144      -7.28857847
H        5.64617684       4.18663802      -6.74570479
H        5.29907773       6.86116524      -3.69347810
H        6.26812565       7.66308664      -4.96970164
H        9.32907337       4.45685287      -3.82446052
H       10.80553894       4.78799120      -1.93824846
H        8.26271813       7.92316023      -0.45196373
H        6.77199127       7.63093175      -2.34073004
C       10.51693876       6.56330584       0.05511331
C       11.25795440       6.72114976       0.99341876
Br      12.45611402       6.97637004       2.51057931
C       -1.79108781      -1.79108781      -1.79108781
C       -1.25380828      -2.92116894      -2.40018010
C       -2.06156922      -3.71806120      -3.21825710
C       -3.40373904      -3.38186791      -3.44457838
C       -3.93175380      -2.25462630      -2.81125216
C       -3.12830361      -1.45947271      -1.98584395
N       -4.13561953      -4.21288771      -4.32105695
C       -5.40156909      -3.98112854      -4.82638528
O       -6.11233724      -3.01202201      -4.57182924
C       -5.91761013      -5.03954025      -5.79502413
H       -6.87060897      -4.65956454      -6.18468777
C       -6.11403710      -6.38872881      -5.13276018
C       -4.87214267      -7.16101281      -5.50253804
O       -4.56065770      -8.20009611      -4.94614776
N       -4.21097069      -6.47208249      -6.53071549
C       -4.95711212      -5.29939313      -6.93532220
C       -3.03989625      -6.90808220      -7.22236662
C       -2.38754875      -8.10420878      -6.89345660
C       -1.24002733      -8.52388465      -7.58012253
C       -0.72241244      -7.74402368      -8.60579472
C       -1.34581928      -6.55226092      -8.95256650
C       -2.49794440      -6.14225018      -8.26808817
H       -0.21059788      -3.18787889      -2.25163399
H       -1.61734000      -4.59267888      -3.68806702
H       -4.97107332      -1.96403382      -2.93141668
H       -3.56062939      -0.58467743      -1.50640983
H       -3.62800501      -5.02043114      -4.66635042
H       -6.97852521      -6.91445414      -5.55122994
H       -6.21092771      -6.32236516      -4.04522678
H       -4.29892773      -4.44319476      -7.11159858
H       -5.49992423      -5.54554866      -7.85544104
H       -2.74745380      -8.75807027      -6.10486268
H       -0.76773986      -9.46262493      -7.30141380
H       -0.95017138      -5.93347958      -9.75419113
H       -2.94753189      -5.20756090      -8.58856026
C        0.45782791      -8.17161801      -9.31134118
C        1.44627920      -8.52972826      -9.90223634
Br       3.04452134      -9.10876226     -10.85766383
C       -1.79108781       1.79108781       1.79108781
C       -2.91307658       2.41185655       1.25022419
C       -3.70989729       3.22985656       2.05813368
C       -3.38158362       3.44442247       3.40417924
C       -2.26253837       2.79950572       3.93558818
C       -1.46753781       1.97415697       3.13192550
N       -4.21158815       4.32159155       4.13638449
C       -3.98521754       4.81641826       5.40744711
O       -3.02293889       4.55008882       6.12316078
C       -5.04044000       5.78885139       5.92288311
H       -4.66446619       6.16916291       6.88123217
C       -6.39557206       5.13474137       6.10521266
C       -7.15649532       5.51861326       4.86058493
O       -8.19722351       4.97173865       4.53793941
N       -6.45576189       6.54651232       4.21149446
C       -5.28555338       6.93763348       4.96864059
C       -6.87866662       7.24938045       3.04229800
C       -8.07244226       6.93346179       2.37931008
C       -8.47922453       7.63106552       1.23374447
C       -7.68859259       8.65481646       0.72882179
C       -6.49885210       8.98882893       1.36296566
C       -6.10175161       8.29344854       2.51308261
H       -3.17347058       2.27248404       0.20415615
H       -4.57806319       3.70890194       1.61112077
H       -1.97843396       2.91035716       4.97773270
H       -0.59917780       1.48556979       3.56696907
H       -5.01310715       4.67609753       3.62558190
H       -6.92443064       5.55084927       6.96892938
H       -6.33749270       4.04611743       6.19490952
H       -4.42353389       7.11247545       4.31771173
H       -5.52908704       7.85564627       5.51618063
H       -8.73431453       6.14699285       2.72907937
H       -9.41654277       7.36227633       0.75295949
H       -5.87171569       9.78882455       0.97730185
H       -5.16803260       8.60418616       2.97143430
C       -8.10293077       9.37158414      -0.44938362
C       -8.44993899       9.97187706      -1.43613065
Br      -9.01102193      10.94249995      -3.03161714
C        1.79108781      -1.79108781       1.79108781
C        1.23450293      -2.87136892       2.46928547
C        2.04314836      -3.66785825       3.28688092
C        3.40637526      -3.38023580       3.44357428
C        3.95256191      -2.30338530       2.74168506
C        3.14783593      -1.50911529       1.91666905
N        4.14036767      -4.20516830       4.32402821
C        5.43513504      -4.00713553       4.76681234
O        6.17344157      -3.08044603       4.44230089
C        5.94829521      -5.04608829       5.75779100
H        6.93178796      -4.69148213       6.09159119
C        6.06095339      -6.42838304       5.14618966
C        4.80541258      -7.13123025       5.59905069
O        4.42824484      -8.17797028       5.10068645
N        4.21742213      -6.37325405       6.62309248
C        5.02747818      -5.21788629       6.94646299
C        3.06005863      -6.73026024       7.38002621
C        2.34590230      -7.90992833       7.12938350
C        1.21250570      -8.25184756       7.87968125
C        0.77143372      -7.40932440       8.89147273
C        1.45728322      -6.23204771       9.16131577
C        2.59497348      -5.89988359       8.41342569
H        0.17587183      -3.09919826       2.37504067
H        1.58395962      -4.50278728       3.81133899
H        5.00707532      -2.05271003       2.80673847
H        3.59473884      -0.67389494       1.38308287
H        3.61533745      -4.97552981       4.72391933
H        6.92027541      -6.97294245       5.55099143
H        6.11400859      -6.41074758       4.05376347
H        4.41298006      -4.32790448       7.11283653
H        5.59851466      -5.44912834       7.85327094
H        2.64480414      -8.61024978       6.35533284
H        0.69076283      -9.18020495       7.66081082
H        1.12182194      -5.56468782       9.95133233
H        3.09567144      -4.97289391       8.67508770
C       -0.39414331      -7.75698066       9.66229393
C       -1.37031406      -8.04814278      10.30785668
Br      -2.94869962      -8.51892731      11.35167706
C       -0.00445707       0.01189536      -1.78238275
H       -0.66409135       0.67374010      -2.43557963
H        0.65740317      -0.63156657      -2.45157240
C       -0.90989263      -0.90692880      -0.91072765
C        0.90977584       0.90977584      -0.90977584
C       -0.00465871       1.77757030       0.00794375
H       -0.66225468       2.44313916      -0.64384735
H        0.64322798       2.43503045       0.67728295
C       -1.78241447       0.00034974      -0.00472694
H       -2.45427497      -0.65498947       0.64260836
H       -2.43311707       0.67328779      -0.65473579
C       -0.91132561       0.90220522       0.91563759
C       -0.01476271      -0.02253852       1.78660255
H       -0.67934791      -0.69751639       2.42135241
H        0.63392994       0.61504881       2.47327442
C        0.01484550      -1.77751727      -0.01636693
H        0.67870853      -2.42144646      -0.68295456
H       -0.62264859      -2.45592969       0.64226336
C        1.78714474       0.01002794       0.00389507
H        2.44202412       0.67113390       0.66197326
H        2.45385902      -0.65136977      -0.64189061
C        0.91606151      -0.90478549       0.90901405
