170
Properties=species:S:1:pos:R:3 pbc="F F F"
C        1.79172464       1.79172464      -1.79172464
C        1.28239366       2.98757248      -2.29937475
C        2.07932998       3.79322084      -3.11883063
C        3.37825114       3.39103986      -3.43005717
O        4.16192872       4.17848064      -4.22627901
C        3.88434207       2.19196697      -2.91733635
C        5.24913278       1.75645454      -3.26560025
N        5.88057389       0.87605611      -2.55385852
N        7.10470324       0.53261542      -3.03603400
C        8.01358666      -0.15218806      -2.25572073
O        7.92598822      -0.48762836      -1.08268389
C        9.32242091      -0.40155562      -3.01215786
O        9.32053685      -0.41855253      -4.23476513
N       10.40858770      -0.49340320      -2.16356119
N       11.66054102      -0.61253511      -2.67453813
C       12.62595538      -0.54261648      -1.81619102
C       14.03004933      -0.68154336      -2.24994058
C       15.03218347      -0.55057197      -1.28195181
C       16.36828982      -0.69435759      -1.65744377
Br      17.72642266      -0.52221554      -0.35357007
C       16.71324944      -0.96636045      -2.98122718
C       15.71234734      -1.09149022      -3.94534874
C       14.37502878      -0.94770670      -3.58150825
O       13.45691547      -1.08507080      -4.58541481
C        3.09177921       1.39114007      -2.08803503
H        0.26799186       3.29830641      -2.06572010
H        1.66816468       4.72241164      -3.50316830
H        3.68923297       5.00409273      -4.42551965
H        5.71294847       2.22405827      -4.15280281
H        7.36834416       0.76394802      -3.99250700
H       10.24371555      -0.43544565      -1.15845233
H       12.44075529      -0.37378599      -0.73937284
H       14.77856167      -0.33935424      -0.24717717
H       17.75328162      -1.08319708      -3.27377176
H       15.97051156      -1.30365205      -4.97979960
H       12.55823194      -0.95208992      -4.20583357
H        3.48558439       0.45671832      -1.69362420
C       -1.79172464      -1.79172464      -1.79172464
C       -2.96683394      -2.33328508      -1.26922187
C       -3.77203462      -3.15290733      -2.06643950
C       -3.39001283      -3.43029396      -3.37904138
O       -4.17720467      -4.22658654      -4.16289717
C       -2.21171459      -2.88366383      -3.89826697
C       -1.79696950      -3.19610298      -5.27811508
N       -0.94366762      -2.45447114      -5.91234977
N       -0.61548551      -2.90539623      -7.15247090
C        0.03536331      -2.09368321      -8.05879944
O        0.34929340      -0.91608996      -7.95424719
C        0.27321527      -2.81898320      -9.38725523
O        0.31436098      -4.04080007      -9.41031036
N        0.32642913      -1.94744908     -10.45772575
N        0.43039976      -2.43112922     -11.72181459
C        0.32414927      -1.55548584     -12.66819335
C        0.44332199      -1.95856974     -14.08319880
C        0.27314122      -0.97383249     -15.06287203
C        0.39738968      -1.31992530     -16.40884038
Br       0.17226486       0.00675757     -17.73679961
C        0.68845619      -2.63090454     -16.78566782
C        0.85269658      -3.61186937     -15.80703308
C        0.72870446      -3.27744727     -14.46008751
O        0.90429314      -4.29630197     -13.56525064
C       -1.41161568      -2.05421080      -3.10512782
H       -3.26164031      -2.12598677      -0.24439129
H       -4.68500073      -3.56390177      -1.64484212
H       -4.98904629      -4.45168686      -3.67811221
H       -2.25621984      -4.08321364      -5.75037608
H       -0.83316387      -3.86094395      -7.43069137
H        0.25198523      -0.94715801     -10.27154945
H        0.13787096      -0.48614608     -12.45806703
H        0.04669876       0.05127773     -14.78436108
H        0.79008817      -2.90046569     -17.83347878
H        1.07998497      -4.63654733     -16.09009675
H        0.78196197      -3.93727530     -12.65666225
H       -0.49327006      -1.63338439      -3.50927246
C       -1.79172464       1.79172464       1.79172464
C       -2.34942506       1.26331627       2.95659956
C       -3.16912164       2.06067256       3.76158725
C       -3.43039424       3.37942764       3.38952629
O       -4.22671761       4.16337076       4.17660000
C       -2.86762514       3.90454084       2.22147941
C       -3.16299706       5.29118131       1.81700919
N       -2.40726271       5.92634924       0.97687658
N       -2.84325966       7.17377985       0.65631315
C       -2.01680906       8.07842873       0.02188155
O       -0.83731051       7.96559721      -0.28186397
C       -2.72718313       9.41595442      -0.21011440
O       -3.94827734       9.45108303      -0.26261093
N       -1.84507778      10.47849649      -0.24482857
N       -2.31574416      11.74808180      -0.34128192
C       -1.43223068      12.68499334      -0.21769411
C       -1.82073300      14.10485477      -0.32714122
C       -0.82843156      15.07340872      -0.13827697
C       -1.16055344      16.42374230      -0.25291974
Br       0.17643667      17.73675970      -0.00254585
C       -2.46506012      16.81583161      -0.55277556
C       -3.45363645      15.84822370      -0.73565429
C       -3.13319103      14.49702704      -0.62138775
O       -4.15875140      13.61367931      -0.81517123
C       -2.03810884       3.11112031       1.42172516
H       -2.15467403       0.23380302       3.24354133
H       -3.59280474       1.63439513       4.66654475
H       -4.46415487       3.67309155       4.98159892
H       -4.04994569       5.76753330       2.27233057
H       -3.79816695       7.45905200       0.86758023
H       -0.84735312      10.28206476      -0.16269566
H       -0.36676010      12.46289389      -0.02331184
H        0.19178150      14.78297335       0.09519275
H       -2.72369822      17.86708859      -0.64693051
H       -4.47336607      16.14321526      -0.96992222
H       -3.80953492      12.70058050      -0.69813983
H       -1.60470854       3.51990351       0.51131486
C        1.79172464      -1.79172464       1.79172464
C        3.12779006      -1.44505786       1.99649296
C        3.94482846      -2.25520759       2.79134540
C        3.41931142      -3.41104853       3.36898823
O        4.21340772      -4.20244707       4.15083359
C        2.07888874      -3.75316180       3.16159486
C        1.53057141      -4.98708934       3.75352682
N        0.25382495      -5.15873335       3.89793023
N       -0.09963115      -6.37124399       4.40173981
C       -1.37062709      -6.60009480       4.88765163
O       -2.30414740      -5.81867318       5.00651797
C       -1.51589024      -8.02969893       5.41921447
O       -0.77412828      -8.90803904       5.00283868
N       -2.46379621      -8.12276591       6.41977600
N       -2.64838563      -9.29878301       7.07214667
C       -3.44671777      -9.25695337       8.08929431
C       -3.74338103     -10.47805985       8.86376774
C       -4.57777899     -10.36028427       9.98105802
C       -4.89131259     -11.49946866      10.72321992
Br      -6.02103144     -11.34733326      12.23147536
C       -4.38425152     -12.74820803      10.36415966
C       -3.54846858     -12.86204558       9.25262885
C       -3.22735652     -11.73044306       8.50574378
O       -2.40319997     -11.92777466       7.43268480
C        1.25778329      -2.93707412       2.37609689
H        3.54159196      -0.55022358       1.54020284
H        4.98183737      -1.96912037       2.94278688
H        5.08269824      -3.78042198       4.25572512
H        2.25795682      -5.75227364       4.07957910
H        0.56779287      -7.14078766       4.41621865
H       -2.98709416      -7.28358845       6.67022794
H       -3.92822358      -8.31730842       8.41725731
H       -4.98044299      -9.39450796      10.27231963
H       -4.63165948     -13.63676648      10.93874930
H       -3.14818194     -13.83070159       8.96413946
H       -2.24465055     -11.05875279       6.99787334
H        0.21657350      -3.20699618       2.21235723
C       -0.00445707       0.01189536      -1.78238275
H       -0.66409135       0.67374010      -2.43557963
H        0.65740317      -0.63156657      -2.45157240
C       -0.90989263      -0.90692880      -0.91072765
C        0.90977584       0.90977584      -0.90977584
C       -0.00465871       1.77757030       0.00794375
H       -0.66225468       2.44313916      -0.64384735
H        0.64322798       2.43503045       0.67728295
C       -1.78241447       0.00034974      -0.00472694
H       -2.45427497      -0.65498947       0.64260836
H       -2.43311707       0.67328779      -0.65473579
C       -0.91132561       0.90220522       0.91563759
C       -0.01476271      -0.02253852       1.78660255
H       -0.67934791      -0.69751639       2.42135241
H        0.63392994       0.61504881       2.47327442
C        0.01484550      -1.77751727      -0.01636693
H        0.67870853      -2.42144646      -0.68295456
H       -0.62264859      -2.45592969       0.64226336
C        1.78714474       0.01002794       0.00389507
H        2.44202412       0.67113390       0.66197326
H        2.45385902      -0.65136977      -0.64189061
C        0.91606151      -0.90478549       0.90901405
