117
Properties=species:S:1:pos:R:3 pbc="F F F"
C        0.00000000       0.00000000       0.00000000
C        0.88240934       0.88240934      -0.88240934
C        0.82760582       0.75059695      -2.26684121
C        1.63534784       1.56117361      -3.07005856
C        2.50217452       2.50659846      -2.50352975
C        3.36526227       3.38625615      -3.31364478
H        3.96877112       4.09430972      -2.75386308
N        3.33860863       3.30507527      -4.65220483
N        4.23538416       4.28082251      -5.22748438
S        4.53349881       4.32787113      -6.88534208
O        3.30273914       4.51745833      -7.62717488
O        5.64958704       5.23830583      -7.08009499
C        5.13429652       2.68743122      -7.24402831
C        4.21938363       1.67160746      -7.53980082
C        4.68418846       0.40270573      -7.89005205
C        6.05798055       0.16372161      -7.95101456
Br       6.68891975      -1.55257778      -8.43677106
C        6.97327563       1.17806288      -7.66235272
C        6.51078926       2.44791567      -7.31082996
C        2.54007335       2.62134323      -1.10641813
C        1.73498183       1.81431500      -0.29593142
H        0.16621689       0.03097991      -2.73803153
H        1.58644582       1.45947814      -4.15203738
H        4.89033433       4.79908032      -4.64858095
H        3.15172197       1.87250996      -7.47415862
H        3.96847566      -0.38479864      -8.10561773
H        8.04233557       0.99306815      -7.70654851
H        7.21573541       3.24364416      -7.08486341
H        3.20106320       3.34910998      -0.64342819
H        1.78334254       1.92642347       0.78226359
C       -0.88240934      -0.88240934      -0.88240934
C       -1.76048455      -0.29565518      -1.78890424
C       -2.56443290      -1.10688862      -2.59525849
C       -2.50155984      -2.50482857      -2.50591432
C       -3.32575085      -3.39713298      -3.34227937
H       -3.16119543      -4.46028200      -3.19546649
N       -4.17784668      -2.87888291      -4.23915915
N       -4.84572465      -3.93782624      -4.96014016
S       -6.08440332      -3.60825880      -6.05404990
O       -5.62553881      -2.71906615      -7.10276739
O       -6.68796344      -4.88599088      -6.39403353
C       -7.27680421      -2.71687909      -5.07207275
C       -7.15862706      -1.32913766      -4.94302720
C       -8.12691634      -0.61551908      -4.23451081
C       -9.20863242      -1.29364236      -3.67044195
Br     -10.52747860      -0.32584165      -2.71979280
C       -9.33205265      -2.67822334      -3.80341524
C       -8.36427273      -3.39439304      -4.51086913
C       -1.60929749      -3.07316078      -1.58537645
C       -0.80144790      -2.26850190      -0.77527846
H       -1.83241917       0.78267758      -1.88548674
H       -3.24597909      -0.64542000      -3.30656227
H       -4.76823292      -4.90658297      -4.66317972
H       -6.30140406      -0.81883558      -5.37815091
H       -8.02212919       0.45980984      -4.12697540
H      -10.17145436      -3.20769022      -3.36280765
H       -8.45221767      -4.47215880      -4.61986651
H       -1.53954622      -4.15423718      -1.49981796
H       -0.11844948      -2.73567914      -0.07337381
C       -0.88240934       0.88240934       0.88240934
C       -1.48879536       2.01311857       0.34313004
C       -2.29655127       2.81633059       1.15369815
C       -2.50642637       2.50189816       2.50397820
C       -3.35626474       3.31709746       3.39180099
H       -3.45949658       2.94929037       4.40815697
N       -3.97174380       4.40924768       2.91489724
N       -4.77067949       5.02207196       3.95093960
S       -5.54954350       6.49544853       3.70171999
O       -6.45660572       6.41692079       2.57384584
O       -6.03658649       6.93158912       4.99981223
C       -4.21967119       7.59500354       3.25108132
C       -3.83178855       7.68853524       1.91046811
C       -2.83968013       8.59785744       1.53940867
C       -2.25192408       9.41153780       2.50925485
Br      -0.91535139      10.65230066       2.00546099
C       -2.64206553       9.32439664       3.84722908
C       -3.63358442       8.41491881       4.22103166
C       -1.88512757       1.35774481       3.02496234
C       -1.07576128       0.54889848       2.22056849
H       -1.34963212       2.28391177      -0.69831556
H       -2.77340785       3.69655659       0.72799691
H       -4.69517680       4.72347004       4.91934876
H       -4.29163830       7.03673098       1.17002126
H       -2.53407356       8.65605034       0.49917085
H       -2.18384368       9.95466637       4.60344218
H       -3.94393636       8.34037251       5.25993411
H       -2.03511379       1.09084567       4.06764190
H       -0.60937880      -0.33177071       2.64989434
C        0.88240934      -0.88240934       0.88240934
C        0.30393987      -1.88192452       1.65917958
C        1.11530513      -2.68780510       2.46346979
C        2.50511017      -2.50568758       2.50150499
C        3.39794602      -3.33766872       3.32954845
H        4.45697453      -3.11271329       3.24725610
N        2.88868232      -4.32148990       4.08571651
N        3.94953624      -5.01737404       4.77678078
S        3.61693834      -6.21163125       5.91814243
O        2.83201423      -7.28117210       5.33418602
O        4.87384262      -6.50988993       6.58425530
C        2.58690427      -5.37158693       7.10726485
C        1.20393186      -5.32331583       6.90354422
C        0.38371301      -4.72902012       7.86421311
C        0.95179786      -4.19775362       9.02316525
Br      -0.16023800      -3.40234950      10.33100154
C        2.33155693      -4.25049252       9.23164178
C        3.15421128      -4.84360272       8.27172089
C        3.06518584      -1.49239809       1.71025078
C        2.26036040      -0.68210696       0.90276089
H       -0.76772894      -2.05154172       1.65141555
H        0.66081607      -3.47166024       3.06548504
H        4.89884713      -4.65483822       4.78431026
H        0.77990693      -5.73077392       5.98770970
H       -0.68759247      -4.68321010       7.69367712
H        2.77542424      -3.83514521      10.13138279
H        4.22911326      -4.88956942       8.42556030
H        4.14019637      -1.33373092       1.71967408
H        2.72126409       0.09285146       0.29908979
