138
Properties=species:S:1:pos:R:3 pbc="F F F"
C        1.79231337       1.79231337      -1.79231337
C        1.73750984       1.66050097      -3.17674523
C        2.54525187       2.47107763      -3.97996258
C        3.41207855       3.41650248      -3.41343378
C        4.27516629       4.29616017      -4.22354880
H        4.87867514       5.00421374      -3.66376710
N        4.24851265       4.21497929      -5.56210886
N        5.14528818       5.19072654      -6.13738841
S        5.44340284       5.23777515      -7.79524611
O        4.21264317       5.42736236      -8.53707890
O        6.55949106       6.14820985      -7.98999901
C        6.04420054       3.59733524      -8.15393234
C        5.12928765       2.58151149      -8.44970484
C        5.59409249       1.31260975      -8.79995607
C        6.96788458       1.07362564      -8.86091859
Br       7.59882378      -0.64267376      -9.34667509
C        7.88317966       2.08796691      -8.57225674
C        7.42069329       3.35781970      -8.22073398
C        3.44997738       3.53124725      -2.01632216
C        2.64488586       2.72421902      -1.20583545
H        1.07612092       0.94088394      -3.64793555
H        2.49634985       2.36938217      -5.06194141
H        5.80023835       5.70898435      -5.55848497
H        4.06162600       2.78241398      -8.38406264
H        4.87837968       0.52510539      -9.01552175
H        8.95223959       1.90297218      -8.61645254
H        8.12563943       4.15354819      -7.99476744
H        4.11096722       4.25901400      -1.55333222
H        2.69324657       2.83632750      -0.12764044
C       -1.79231337      -1.79231337      -1.79231337
C       -3.09992217      -2.06995378      -1.40488010
C       -3.90395493      -2.87618445      -2.21615270
C       -3.41435679      -3.41158298      -3.41607503
C       -4.23033994      -4.25996467      -4.30457066
H       -3.74201588      -4.58716212      -5.21747799
N       -5.50012792      -4.54532631      -3.98014657
N       -6.10624174      -5.35673253      -5.01042885
S       -7.65204791      -6.00099525      -4.82338093
O       -8.62636674      -4.95147459      -4.59924309
O       -7.83954246      -6.95011562      -5.90804184
C       -7.52465978      -6.95124238      -3.31956597
C       -7.74781059      -6.32247894      -2.09021446
C       -7.71903884      -7.07370007      -0.91391940
C       -7.47751627      -8.44690589      -0.97800664
Br      -7.44970782      -9.46781335       0.61469606
C       -7.26078390      -9.07787629      -2.20474312
C       -7.28813053      -8.32842482      -3.38269162
C       -2.09385669      -3.11800243      -3.78568767
C       -1.28316534      -2.31206488      -2.97971010
H       -3.51118323      -1.66974871      -0.48400847
H       -4.92727807      -3.08711299      -1.91328235
H       -5.54832538      -5.76313309      -5.75624920
H       -7.92136615      -5.24850132      -2.05823515
H       -7.88003346      -6.57704944       0.03807608
H       -7.06994263     -10.14558593      -2.25613575
H       -7.12092373      -8.81097463      -4.34205669
H       -1.69233125      -3.51817469      -4.71280749
H       -0.26587127      -2.09958253      -3.29176069
C       -1.79231337       1.79231337       1.79231337
C       -2.93504779       2.38095597       1.25875228
C       -3.74014426       3.18593135       2.07021647
C       -3.41514741       3.41139445       3.41547294
C       -4.24008836       4.24685883       4.30792808
H       -3.89392569       4.31815391       5.33457639
N       -5.35737774       4.82524459       3.84297847
N       -6.01331499       5.56056626       4.89952187
S       -7.36584375       6.51774352       4.59283683
O       -8.43517568       5.73111687       4.01079187
O       -7.60525208       7.29506873       5.79737912
C       -6.79199906       7.65700443       3.34646463
C       -6.86885696       7.29372430       1.99792272
C       -6.48721604       8.20645661       1.01298566
C       -6.04204661       9.47615747       1.38422472
Br      -5.53547036      10.71781701       0.04953774
C       -5.97051983       9.84325959       2.72962388
C       -6.35081883       8.93168815       3.71673998
C       -2.25905097       2.80771790       3.93077791
C       -1.44850955       2.00085277       3.12557801
H       -3.21706316       2.22523422       0.22264303
H       -4.63554039       3.64040412       1.65172892
H       -5.55410260       5.72204737       5.79155769
H       -7.20575797       6.29472055       1.72762410
H       -6.53690637       7.91339574      -0.03129529
H       -5.62174522      10.82963639       3.02028270
H       -6.29887344       9.20869201       4.76638960
H       -1.98768122       2.96430061       4.97133161
H       -0.56100005       1.54456328       3.55165117
C        1.79231337      -1.79231337       1.79231337
C        1.82076871      -1.58562849       3.16835885
C        2.62811372      -2.39643306       3.97174531
C        3.41192234      -3.41641903       3.41367344
C        4.27122897      -4.29879291       4.22485338
H        4.80523508      -5.06724179       3.67417912
N        4.32258573      -4.14653697       5.55647810
N        5.19754000      -5.13883125       6.13703188
S        5.58361857      -5.11565648       7.77714905
O        4.38735624      -5.19822855       8.59149963
O        6.65971060      -6.07475578       7.96323355
C        6.28802627      -3.49430615       8.01313570
C        5.44503597      -2.41560372       8.29986429
C        5.99399261      -1.15767383       8.55499187
C        7.37965260      -0.99183508       8.53094112
Br       8.12506923       0.71012675       8.88788263
C        8.22349284      -2.06870933       8.25120114
C        7.67672836      -3.32778153       7.99473708
C        3.36680342      -3.60581631       2.02492706
C        2.56151590      -2.79907516       1.21434926
H        1.22477500      -0.80708511       3.63308030
H        2.64422984      -2.23588422       5.04755937
H        5.79168932      -5.72186111       5.55415724
H        4.36635376      -2.56056953       8.30117933
H        5.33329957      -0.32178539       8.76392186
H        9.30155850      -1.94080144       8.22930437
H        8.32568399      -4.17182029       7.77645077
H        3.96242547      -4.39203607       1.56885190
H        2.54452504      -2.96977978       0.14290967
C       -0.00445707       0.01189536      -1.78238275
H       -0.66409135       0.67374010      -2.43557963
H        0.65740317      -0.63156657      -2.45157240
C       -0.90989263      -0.90692880      -0.91072765
C        0.90977584       0.90977584      -0.90977584
C       -0.00465871       1.77757030       0.00794375
H       -0.66225468       2.44313916      -0.64384735
H        0.64322798       2.43503045       0.67728295
C       -1.78241447       0.00034974      -0.00472694
H       -2.45427497      -0.65498947       0.64260836
H       -2.43311707       0.67328779      -0.65473579
C       -0.91132561       0.90220522       0.91563759
C       -0.01476271      -0.02253852       1.78660255
H       -0.67934791      -0.69751639       2.42135241
H        0.63392994       0.61504881       2.47327442
C        0.01484550      -1.77751727      -0.01636693
H        0.67870853      -2.42144646      -0.68295456
H       -0.62264859      -2.45592969       0.64226336
C        1.78714474       0.01002794       0.00389507
H        2.44202412       0.67113390       0.66197326
H        2.45385902      -0.65136977      -0.64189061
C        0.91606151      -0.90478549       0.90901405
