117
Properties=species:S:1:pos:R:3 pbc="F F F"
C        0.00000000       0.00000000       0.00000000
C        0.88146446       0.88146446      -0.88146446
C        1.94321378       0.31387902      -1.58479890
C        2.75145249       1.11768823      -2.39612516
C        2.48790530       2.48905240      -2.51267199
C        1.42963888       3.05077042      -1.78335063
C        0.62386583       2.24747618      -0.97205083
C        3.30423665       3.39645851      -3.36617723
O        3.38333762       4.58964202      -3.09187439
C        3.96600930       2.82113128      -4.56994573
C        4.78756526       3.58546764      -5.30671189
C        5.49417826       3.11939564      -6.50943207
C        6.73816049       3.68723409      -6.82021746
C        7.44269765       3.28814614      -7.95942100
C        6.90654386       2.32201804      -8.80810716
C        5.66285372       1.76764744      -8.51668499
C        4.95315792       2.16482064      -7.38149352
H        2.15413097      -0.74969246      -1.50306409
H        3.59107203       0.65419931      -2.90630921
H        1.22691744       4.11902950      -1.84823337
H       -0.19589820       2.69779409      -0.41791350
H        3.75769036       1.79326633      -4.83196921
H        4.98304798       4.61557077      -5.00994216
H        7.17593722       4.44358836      -6.17101185
H        8.40914721       3.73302526      -8.18302152
H        7.45961981       2.01466677      -9.69159723
H        3.97393514       1.73456691      -7.19096504
C        5.10095849       0.77552210      -9.39620819
C        4.63037123      -0.05538287     -10.13280887
Br       3.86947143      -1.39888593     -11.32382986
C       -0.88146446      -0.88146446      -0.88146446
C       -0.31437537      -1.94496215      -1.58255419
C       -1.11927095      -2.75702763      -2.38896731
C       -2.49560036      -2.51097049      -2.48305885
C       -3.04950229      -1.42517191      -1.78908573
C       -2.24458533      -0.61368281      -0.98512470
C       -3.40755708      -3.34333137      -3.31598395
O       -4.44053564      -2.85811033      -3.76620806
C       -3.05007778      -4.77247341      -3.53453513
C       -3.79514464      -5.52615258      -4.35844757
C       -3.53085806      -6.94355480      -4.64859312
C       -3.88935613      -7.45013546      -5.90612046
C       -3.67156243      -8.79328167      -6.22542068
C       -3.10075105      -9.64963121      -5.28628680
C       -2.76003692      -9.15854603      -4.02860320
C       -2.97817396      -7.81819530      -3.70310283
H        0.75209208      -2.14567831      -1.51391638
H       -0.64475084      -3.55778980      -2.94903992
H       -4.11417374      -1.20981302      -1.87019355
H       -2.69084045       0.22039239      -0.44936133
H       -2.19625778      -5.17722790      -3.00944022
H       -4.64445981      -5.08480963      -4.87929147
H       -4.33653744      -6.79885033      -6.65514966
H       -3.94881726      -9.16927461      -7.20710213
H       -2.93248155     -10.69262274      -5.54077951
H       -2.72617247      -7.46686611      -2.70642852
C       -2.17835674     -10.04244401      -3.05188803
C       -1.69119958     -10.78270857      -2.23388908
Br      -0.90350766     -11.97965375      -0.91125395
C       -0.88146446       0.88146446       0.88146446
C       -1.75117103       1.79836463       0.29235604
C       -2.56290422       2.60580477       1.09655688
C       -2.51228107       2.48556434       2.49178429
C       -1.61784851       1.57404761       3.07186381
C       -0.80636341       0.76910003       2.26792940
C       -3.35629520       3.30828428       3.40229291
O       -2.97491698       3.54606833       4.54386872
C       -4.67729189       3.77894691       2.90084752
C       -5.42070717       4.60261128       3.65642634
C       -6.73474888       5.12982584       3.25843126
C       -7.12333694       6.39187278       3.73040232
C       -8.36766613       6.93078766       3.39181099
C       -9.24373412       6.20897882       2.58395612
C       -8.87298326       4.94678362       2.12741927
C       -7.63224045       4.40215570       2.46507594
H       -1.79971217       1.89720400      -0.78941357
H       -3.20662711       3.33384039       0.61111306
H       -1.55308465       1.48551132       4.15558434
H       -0.12269111       0.06361863       2.73349964
H       -5.01573306       3.43293273       1.93426011
H       -5.04626223       4.93964324       4.62265544
H       -6.45452395       6.97327673       4.36273674
H       -8.65153962       7.91346324       3.76019113
H      -10.20927864       6.63377334       2.32283183
H       -7.37819661       3.40517463       2.11609586
C       -9.77928187       4.19356673       1.29984017
C      -10.53830695       3.56274759       0.60674268
Br     -11.76558631       2.54276638      -0.51393734
C        0.88146446      -0.88146446       0.88146446
C        2.26913954      -0.77191157       0.80084060
C        3.08040778      -1.57568194       1.60917616
C        2.50061193      -2.48098055       2.50803722
C        1.10382448      -2.59596023       2.56397523
C        0.29435140      -1.79388863       1.75515282
C        3.30776952      -3.35736594       3.40173692
O        2.84820152      -4.42655058       3.79010193
C        4.64661792      -2.87244836       3.83802003
C        5.44151882      -3.67569458       4.56253139
C        6.78062978      -3.30090960       5.04146660
C        7.74590921      -4.30680411       5.19289872
C        9.02869138      -4.00381405       5.65775935
C        9.35923202      -2.69088860       5.98654844
C        8.40014333      -1.68964554       5.85739729
C        7.11601640      -1.98713550       5.39632018
H        2.72851257      -0.07050621       0.10848382
H        4.15811988      -1.49204233       1.50141834
H        0.64053859      -3.31071346       3.24292826
H       -0.78673653      -1.89151592       1.81503000
H        4.94556801      -1.86929856       3.56805933
H        5.11340545      -4.68481926       4.81033621
H        7.50938370      -5.33936720       4.94178653
H        9.76802049      -4.79387284       5.76330067
H       10.35866081      -2.46113569       6.34608731
H        6.37944523      -1.19141272       5.32860915
C        8.73487953      -0.33289159       6.20491765
C        9.01522110       0.80338984       6.49596596
Br       9.46850971       2.64066080       6.96656645
