138
Properties=species:S:1:pos:R:3 pbc="F F F"
C        1.79136848       1.79136848      -1.79136848
C        2.85311780       1.22378305      -2.49470293
C        3.66135652       2.02759225      -3.30602918
C        3.39780933       3.39895643      -3.42257602
C        2.33954291       3.96067444      -2.69325466
C        1.53376986       3.15738020      -1.88195485
C        4.21414068       4.30636253      -4.27608126
O        4.29324165       5.49954605      -4.00177841
C        4.87591333       3.73103531      -5.47984975
C        5.69746929       4.49537167      -6.21661591
C        6.40408229       4.02929967      -7.41933609
C        7.64806452       4.59713811      -7.73012149
C        8.35260167       4.19805016      -8.86932502
C        7.81644788       3.23192206      -9.71801119
C        6.57275774       2.67755147      -9.42658901
C        5.86306195       3.07472467      -8.29139755
H        3.06403500       0.16021156      -2.41296811
H        4.50097606       1.56410333      -3.81621324
H        2.13682146       5.02893352      -2.75813740
H        0.71400582       3.60769811      -1.32781752
H        4.66759439       2.70317035      -5.74187323
H        5.89295201       5.52547480      -5.91984618
H        8.08584125       5.35349238      -7.08091587
H        9.31905123       4.64292929      -9.09292555
H        8.36952383       2.92457079     -10.60150125
H        4.88383917       2.64447094      -8.10086907
C        6.01086251       1.68542613     -10.30611221
C        5.54027525       0.85452116     -11.04271289
Br       4.77937546      -0.48898191     -12.23373389
C       -1.79136848      -1.79136848      -1.79136848
C       -1.55316335      -3.16373541      -1.85470502
C       -2.36065454      -3.97544638      -2.65887703
C       -3.41554174      -3.41344988      -3.39035015
C       -3.63096399      -2.02861395      -3.33389407
C       -2.82300313      -1.21844012      -2.53166166
C       -4.31629453      -4.22350692      -4.25678301
O       -4.87369629      -3.70304255      -5.21782726
C       -4.54955886      -5.64781082      -3.88942871
C       -5.27593031      -6.43356449      -4.69996207
C       -5.56422704      -7.85157465      -4.43691636
C       -5.73060026      -8.71696057      -5.52776328
C       -6.01934924     -10.07015298      -5.33047463
C       -6.15504977     -10.57306368      -4.03826768
C       -6.01057559      -9.71592078      -2.95040185
C       -5.72505780      -8.36242254      -3.14170382
H       -0.73880335      -3.60966811      -1.28874321
H       -2.13124771      -5.03581384      -2.71423108
H       -4.43406700      -1.57584069      -3.91398470
H       -3.00712566      -0.14764414      -2.49475166
H       -4.13370725      -6.01664273      -2.96228799
H       -5.67366728      -6.03270291      -5.63190280
H       -5.62879070      -8.34545758      -6.54600123
H       -6.13877037     -10.72968381      -6.18645189
H       -6.37815262     -11.62637718      -3.89106608
H       -5.64203915      -7.71065508      -2.27648494
C       -6.15918285     -10.22977790      -1.61344010
C       -6.28364143     -10.66013324      -0.49373462
Br      -6.48488043     -11.35598142       1.31673442
C       -1.79136848       1.79136848       1.79136848
C       -1.87019150       3.16071042       1.54070185
C       -2.67927965       3.97146112       2.34423718
C       -3.41975487       3.40770624       3.39188066
C       -3.31500742       2.03230309       3.64616150
C       -2.50546540       1.22355705       2.84408246
C       -4.30588850       4.21391511       4.27678085
O       -4.53821220       3.83579218       5.42056172
C       -4.92719339       5.44510360       3.71450140
C       -5.65163191       6.24767423       4.51015073
C       -6.30456699       7.48676529       4.06138576
C       -6.46053825       8.53476106       4.98002480
C       -7.08662020       9.72712397       4.60623268
C       -7.57371222       9.88248310       3.31018581
C       -7.44000310       8.83896417       2.39793095
C       -6.81805164       7.64431923       2.76681329
H       -1.30159044       3.60715865       0.72846559
H       -2.69568311       5.03943682       2.14617269
H       -3.86864089       1.58469772       4.47055377
H       -2.43997114       0.15834445       3.05120587
H       -4.78854740       5.65991835       2.66417223
H       -5.76466505       6.00677038       5.56683756
H       -6.08734965       8.43504628       5.99785358
H       -7.19385680      10.53290678       5.32814249
H       -8.05827998      10.81239269       3.02492321
H       -6.74909227       6.83701790       2.04306900
C       -7.95030074       8.99199497       1.06010514
C       -8.37767501       9.12015826      -0.06032397
Br      -9.06870307       9.32738746      -1.87196309
C        1.79136848      -1.79136848       1.79136848
C        3.17324383      -1.60545898       1.79290097
C        3.98425290      -2.40908977       2.60163528
C        3.40905109      -3.39134872       3.41894196
C        2.01967272      -3.58178791       3.39201137
C        1.21057232      -2.77973082       2.58280178
C        4.21550583      -4.27228915       4.30878949
O        3.79576536      -5.38366471       4.61513603
C        5.50116644      -3.74302584       4.84260610
C        6.30019020      -4.54238180       5.56688487
C        7.58994149      -4.12526436       6.13751220
C        8.59982067      -5.08633963       6.28916382
C        9.83808096      -4.74297062       6.83892528
C       10.07844095      -3.43466203       7.25327816
C        9.07383030      -2.47912643       7.12394150
C        7.83373004      -2.81728894       6.57816518
H        3.62881696      -0.84412057       1.16427715
H        5.05989013      -2.26366548       2.55773702
H        1.56162892      -4.35590338       4.00636008
H        0.13482992      -2.93664844       2.57804309
H        5.75821263      -2.71236119       4.64206416
H        6.01554598      -5.57930547       5.74342154
H        8.43376267      -6.11446207       5.97202476
H       10.61319149      -5.49807142       6.94364316
H       11.04366624      -3.17328642       7.67864322
H        7.05908897      -2.05847475       6.51161545
C        9.31499128      -1.12792547       7.55948410
C        9.51696360       0.00370533       7.92425103
Br       9.84353575       1.83345663       8.51404831
C       -0.00445707       0.01189536      -1.78238275
H       -0.66409135       0.67374010      -2.43557963
H        0.65740317      -0.63156657      -2.45157240
C       -0.90989263      -0.90692880      -0.91072765
C        0.90977584       0.90977584      -0.90977584
C       -0.00465871       1.77757030       0.00794375
H       -0.66225468       2.44313916      -0.64384735
H        0.64322798       2.43503045       0.67728295
C       -1.78241447       0.00034974      -0.00472694
H       -2.45427497      -0.65498947       0.64260836
H       -2.43311707       0.67328779      -0.65473579
C       -0.91132561       0.90220522       0.91563759
C       -0.01476271      -0.02253852       1.78660255
H       -0.67934791      -0.69751639       2.42135241
H        0.63392994       0.61504881       2.47327442
C        0.01484550      -1.77751727      -0.01636693
H        0.67870853      -2.42144646      -0.68295456
H       -0.62264859      -2.45592969       0.64226336
C        1.78714474       0.01002794       0.00389507
H        2.44202412       0.67113390       0.66197326
H        2.45385902      -0.65136977      -0.64189061
C        0.91606151      -0.90478549       0.90901405
