130
Properties=species:S:1:pos:R:3 pbc="F F F"
C        1.79136848       1.79136848      -1.79136848
C        2.85311780       1.22378305      -2.49470293
C        3.66135652       2.02759225      -3.30602918
C        3.39780933       3.39895643      -3.42257602
C        2.33954291       3.96067444      -2.69325466
C        1.53376986       3.15738020      -1.88195485
C        4.21414068       4.30636253      -4.27608126
O        4.29324165       5.49954605      -4.00177841
C        4.87591333       3.73103531      -5.47984975
C        5.69746929       4.49537167      -6.21661591
C        6.40408229       4.02929967      -7.41933609
C        7.64806452       4.59713811      -7.73012149
C        8.35260167       4.19805016      -8.86932502
C        7.81644788       3.23192206      -9.71801119
C        6.57275774       2.67755147      -9.42658901
Br       5.83470153       1.37438279     -10.58185341
C        5.86306195       3.07472467      -8.29139755
H        3.06403500       0.16021156      -2.41296811
H        4.50097606       1.56410333      -3.81621324
H        2.13682146       5.02893352      -2.75813740
H        0.71400582       3.60769811      -1.32781752
H        4.66759439       2.70317035      -5.74187323
H        5.89295201       5.52547480      -5.91984618
H        8.08584125       5.35349238      -7.08091587
H        9.31905123       4.64292929      -9.09292555
H        8.36952383       2.92457079     -10.60150125
H        4.88383917       2.64447094      -8.10086907
C       -1.79136848      -1.79136848      -1.79136848
C       -1.58348624      -3.16984789      -1.81826964
C       -2.39114945      -3.98148018      -2.62234832
C       -3.41606098      -3.41287043      -3.39041035
C       -3.60072983      -2.02260025      -3.37014193
C       -2.79258895      -1.21255957      -2.56795639
C       -4.31549678      -4.22218368      -4.25890400
O       -4.83896717      -3.71158096      -5.24401797
C       -4.58973750      -5.63202789      -3.86503299
C       -5.31558162      -6.41969021      -4.67418504
C       -5.64233153      -7.82440809      -4.38597843
C       -5.80398920      -8.71073524      -5.46059968
C       -6.12821621     -10.05217420      -5.23958645
C       -6.30454318     -10.52198840      -3.93984954
C       -6.16489600      -9.64347540      -2.86852682
Br      -6.41510350     -10.27321626      -1.10261797
C       -5.84402630      -8.30152002      -3.08363783
H       -0.79257412      -3.62085032      -1.22379023
H       -2.18505080      -5.04774003      -2.64850180
H       -4.37991492      -1.56533997      -3.97863749
H       -2.95277102      -0.13732171      -2.55942872
H       -4.20348572      -5.98866974      -2.92048252
H       -5.68288193      -6.03155399      -5.62383707
H       -5.67073510      -8.36518354      -6.48433087
H       -6.24349282     -10.72839827      -6.08301498
H       -6.55511930     -11.56633714      -3.77413944
H       -5.76552035      -7.63202233      -2.23163649
C       -1.79136848       1.79136848       1.79136848
C       -1.69782722       3.17918290       1.69459366
C       -2.50609777       3.99049029       2.49838989
C       -3.41776987       3.41074991       3.39082199
C       -3.48675295       2.01356220       3.49315686
C       -2.67799489       1.20403093       2.69107908
C       -4.31206544       4.21806335       4.26645567
O       -4.71366871       3.75268618       5.32821121
C       -4.73254743       5.56479036       3.78946060
C       -5.45713669       6.35900680       4.59331338
C       -5.92122359       7.70541746       4.22607700
C       -6.07307020       8.66326513       5.23898878
C       -6.52419418       9.95260946       4.94317322
C       -6.83868335      10.29731154       3.63038624
C       -6.70910310       9.34580789       2.62198723
Br      -7.14624190       9.80479946       0.83989637
C       -6.26172611       8.05519928       2.91225877
H       -0.99545679       3.63854752       1.00321036
H       -2.38832384       5.06790537       2.42506342
H       -4.17587055       1.55005323       4.19796860
H       -2.74804262       0.12270301       2.77877583
H       -4.45129966       5.87002230       2.79131602
H       -5.71653379       6.02436944       5.59736976
H       -5.83300164       8.41566543       6.27158244
H       -6.63022448      10.68598628       5.73869531
H       -7.18757495      11.30177558       3.40624535
H       -6.19345019       7.32495820       2.11077078
C        1.79136848      -1.79136848       1.79136848
C        3.10148131      -1.40233947       2.06778299
C        3.91151557      -2.20576848       2.87769390
C        3.40439592      -3.39360658       3.42133928
C        2.09163035      -3.78363471       3.11820695
C        1.28380469      -2.98136280       2.30793742
C        4.21157189      -4.28737939       4.29763318
O        3.95578152      -5.48601056       4.35277402
C        5.28646821      -3.67412900       5.12620118
C        6.09683160      -4.46012279       5.85250247
C        7.19018429      -3.96186726       6.70066650
C        8.32086596      -4.77097624       6.88348192
C        9.38047941      -4.34846735       7.69103009
C        9.31791622      -3.11418628       8.33427863
C        8.18997894      -2.31365474       8.17326455
Br       8.09455899      -0.64244769       9.05393105
C        7.12704497      -2.73209112       7.37004807
H        3.50328085      -0.48105744       1.65287639
H        4.93797102      -1.89420253       3.04911908
H        1.69186558      -4.71516216       3.51686464
H        0.26664340      -3.29542684       2.08745121
H        5.38252680      -2.59742563       5.13268554
H        5.97868122      -5.54278816       5.81680361
H        8.39094518      -5.73899416       6.39031016
H       10.25318893      -4.98435951       7.81735763
H       10.14548728      -2.79037975       8.95972886
H        6.24836829      -2.09933631       7.28147457
C       -0.00445707       0.01189536      -1.78238275
H       -0.66409135       0.67374010      -2.43557963
H        0.65740317      -0.63156657      -2.45157240
C       -0.90989263      -0.90692880      -0.91072765
C        0.90977584       0.90977584      -0.90977584
C       -0.00465871       1.77757030       0.00794375
H       -0.66225468       2.44313916      -0.64384735
H        0.64322798       2.43503045       0.67728295
C       -1.78241447       0.00034974      -0.00472694
H       -2.45427497      -0.65498947       0.64260836
H       -2.43311707       0.67328779      -0.65473579
C       -0.91132561       0.90220522       0.91563759
C       -0.01476271      -0.02253852       1.78660255
H       -0.67934791      -0.69751639       2.42135241
H        0.63392994       0.61504881       2.47327442
C        0.01484550      -1.77751727      -0.01636693
H        0.67870853      -2.42144646      -0.68295456
H       -0.62264859      -2.45592969       0.64226336
C        1.78714474       0.01002794       0.00389507
H        2.44202412       0.67113390       0.66197326
H        2.45385902      -0.65136977      -0.64189061
C        0.91606151      -0.90478549       0.90901405
