137
Properties=species:S:1:pos:R:3 pbc="F F F"
C        0.00000000       0.00000000       0.00000000
C        6.72221918       9.89912047      -3.98883108
O        5.37805802      10.32847751      -4.17384661
C        4.42013921       9.34913827      -4.26265399
C        4.63857768       7.97292501      -4.15352896
C        3.56506833       7.07044430      -4.24231766
C        3.83509779       5.63022645      -4.10967928
C        2.98295409       4.77477638      -3.52442277
C        3.33134883       3.33320389      -3.39722321
O        4.25571455       2.82729269      -4.02264914
C        2.47746169       2.50386703      -2.50327128
C        2.29932182       1.15032342      -2.81786254
C        1.49603059       0.34037666      -2.00994175
C        0.88153043       0.88153043      -0.88153043
C        1.07054829       2.22140572      -0.54654205
C        1.87318107       3.03261734      -1.35353012
C        2.27393038       7.56399101      -4.48197548
C        2.04926898       8.93737037      -4.58889936
C        3.11798634       9.82251761      -4.47436136
O        2.91399182      11.17573558      -4.56999441
H        7.35206432      10.79218464      -3.93228254
H        7.06444366       9.30196944      -4.84026780
H        6.83665833       9.35189872      -3.04750912
H        5.63591923       7.57808452      -3.98355277
H        4.79606838       5.27765059      -4.48171099
H        2.02848309       5.09894470      -3.12972396
H        2.78147935       0.72453521      -3.69631204
H        1.35871802      -0.70659070      -2.26855970
H        0.60451072       2.64186973       0.34134398
H        2.03076258       4.06603908      -1.05601778
H        1.43529745       6.88122196      -4.59302982
H        3.79712165      11.58004057      -4.46650285
C        0.70403671       9.39998348      -4.81237026
C       -0.42259531       9.78742197      -4.99952713
Br      -2.24426402      10.41387723      -5.30214397
C       -9.26100397      -7.78688101      -3.56228575
O       -8.36868665      -8.64785989      -2.86383560
C       -7.06869792      -8.22492690      -2.73830665
C       -6.54987709      -7.01285386      -3.20230070
C       -5.19924381      -6.68706211      -2.99152437
C       -4.69480047      -5.39580393      -3.48439912
C       -3.75657444      -4.68176731      -2.84381150
C       -3.31150993      -3.36754399      -3.38272200
O       -3.57623682      -3.00614300      -4.52327657
C       -2.48322769      -2.51189728      -2.48947503
C       -1.52965364      -1.66643049      -3.07142366
C       -0.72431630      -0.85544869      -2.26658401
C       -0.88153043      -0.88153043      -0.88153043
C       -1.84292380      -1.70202430      -0.29354797
C       -2.64870341      -2.51372007      -1.09690505
C       -4.36532551      -7.61072557      -2.34384579
C       -4.87843934      -8.82136928      -1.87573009
C       -6.22429092      -9.12142712      -2.06914727
O       -6.74664406     -10.30368426      -1.60939347
H      -10.24653749      -8.26244620      -3.56754782
H       -8.94703085      -7.65663892      -4.60301113
H       -9.36021673      -6.82278020      -3.05306925
H       -7.18208140      -6.29662836      -3.71884675
H       -5.14932048      -5.01018001      -4.39592947
H       -3.29936636      -5.03097930      -1.92680609
H       -1.40786872      -1.64137545      -4.15308243
H        0.01772559      -0.20938495      -2.72902765
H       -1.97759845      -1.71281034       0.78537232
H       -3.41188188      -3.12218742      -0.61875013
H       -3.30876026      -7.39575077      -2.20503820
H       -7.68909811     -10.28894238      -1.86562458
C       -3.99065899      -9.72919328      -1.19653818
C       -3.24714295     -10.48949587      -0.62771496
Br      -2.04494039     -11.71884087       0.29202408
C       -3.53608267       9.17948779       7.89460028
O       -2.87117286       8.25790900       8.75130029
C       -2.76203324       6.96393778       8.30596046
C       -3.21238331       6.47699670       7.07565165
C       -3.02084180       5.12893789       6.72805060
C       -3.49827378       4.65841215       5.41831760
C       -2.86187645       3.72167498       4.69860181
C       -3.38377047       3.31182110       3.36618435
O       -4.51200641       3.60511428       2.98853570
C       -2.49002236       2.48280820       2.51176943
C       -3.07348953       1.55663635       1.63738190
C       -2.26854149       0.75141472       0.82639278
C       -0.88153043       0.88153043       0.88153043
C       -0.29140581       1.81587282       1.73121743
C       -1.09487717       2.62149472       2.54295663
C       -2.40678847       4.26553129       7.64757711
C       -1.95239817       4.74671530       8.87642524
C       -2.12618341       6.09014540       9.19853650
O       -1.67943406       6.58125961      10.39902813
H       -3.53192235      10.15582177       8.38878739
H       -4.57984149       8.88802810       7.73881130
H       -3.00670216       9.28703703       6.94232698
H       -3.70312200       7.13234657       6.36208794
H       -4.39353392       5.13749526       5.02440078
H       -1.96049577       3.24048469       5.05617129
H       -4.15656851       1.45610176       1.58965633
H       -2.73239057       0.03065728       0.15763917
H        0.78945166       1.92961338       1.76487474
H       -0.61420423       3.36378710       3.17482810
H       -2.28378293       3.21072971       7.41503659
H       -1.91756346       7.52856289      10.39753871
C       -1.30755233       3.82915991       9.77967821
C       -0.76749394       3.06070726      10.53615258
Br       0.10573480       1.81818433      11.75930765
C        9.40370365      -3.61961366       7.58685342
O       10.03382891      -3.53278689       6.31376635
C        9.21849360      -3.60196174       5.21147614
C        7.82540714      -3.71472987       5.22489464
C        7.10084739      -3.75547120       4.02151170
C        5.63450869      -3.86191583       4.07857900
C        4.82082887      -3.27136318       3.18996120
C        3.34345636      -3.39555610       3.32276346
O        2.82160797      -4.22011332       4.06393510
C        2.50733152      -2.49915846       2.47811002
C        1.25606020      -2.96151072       2.04993686
C        0.44553329      -2.15458622       1.24622949
C        0.88153043      -0.88153043       0.88153043
C        2.11477500      -0.40276099       1.32096007
C        2.92648254      -1.20849954       2.12434645
C        7.79517507      -3.72174743       2.80297437
C        9.18598308      -3.60623503       2.78332061
C        9.89020475      -3.54188495       3.98277560
O       11.25673657      -3.42127000       3.98171523
H       10.18386127      -3.54236839       8.35030185
H        8.90632222      -4.58665692       7.71370176
H        8.70576164      -2.79014963       7.74015491
H        7.27813239      -3.75743410       6.16199003
H        5.21817421      -4.42359064       4.91366511
H        5.20494971      -2.69235174       2.35985030
H        0.91172249      -3.95376153       2.33684257
H       -0.52000328      -2.52724351       0.91344678
H        2.45025683       0.59548739       1.05026704
H        3.86995711      -0.80277646       2.48008586
H        7.25743437      -3.79137149       1.86074336
H       11.51719047      -3.40351557       4.92295902
C        9.85480164      -3.55238839       1.50920041
C       10.41493719      -3.50729184       0.44212475
Br      11.32062900      -3.43437452      -1.28324634
