194
Properties=species:S:1:pos:R:3 pbc="F F F"
C        4.19242692       8.39099364      -4.59353955
C        4.83524597       8.13885635      -3.23339028
N        3.97801424       8.50416953      -2.09385343
C        2.68910997       7.80718125      -2.03824136
C        2.83177338       6.33050008      -1.82564657
C        2.23586298       5.43190745      -2.63301652
C        2.41522032       3.97970643      -2.59961866
C        3.40330907       3.39205599      -3.39951947
C        3.58219555       2.00768832      -3.39500398
C        2.77401141       1.20493490      -2.59013129
C        1.79227669       1.79227669      -1.79227669
C        1.60600660       3.17452884      -1.79344203
C        3.71891328       5.94451681      -0.68828640
O        3.52840891       4.93708330      -0.01357494
C        4.84406614       6.88505728      -0.39336814
C        5.91016368       6.34959115       0.23076260
C        7.10747144       7.09421271       0.61823368
C        7.20476617       7.64072917       1.90252040
C        8.35200888       8.33947151       2.28382845
C        9.40528550       8.49611842       1.38256511
C        9.30480230       7.95345440       0.10212693
Br      10.73317740       8.16365812      -1.11872998
C        8.16257703       7.25352676      -0.28597267
C        4.67404336       8.31867033      -0.81096129
H        4.93232173       8.24134103      -5.38712627
H        3.81771433       9.41640256      -4.67272446
H        3.36601987       7.70038224      -4.78714291
H        5.74542505       8.75054010      -3.19070062
H        5.16028218       7.09245068      -3.18605041
H        2.10291288       8.03056952      -2.93743284
H        2.08940256       8.22384364      -1.21667300
H        1.60534124       5.77406728      -3.45149328
H        4.04114608       4.00847998      -4.02893496
H        4.35207450       1.55679374      -4.01486354
H        2.91994021       0.12849294      -2.58756415
H        0.84955655       3.62606520      -1.15751015
H        5.92909878       5.29352848       0.49873666
H        6.39250243       7.51785924       2.61623671
H        8.42642445       8.75635411       3.28534471
H       10.29729681       9.03688989       1.68818891
H        8.09500769       6.82727772      -1.28347832
H        4.09768216       8.83290518      -0.02951740
H        5.63283335       8.84873687      -0.84790344
C       -6.55377663      -3.10843246      -7.51475101
C       -5.12019776      -3.05417755      -8.03311729
N       -4.62313109      -1.68812463      -8.26478149
C       -4.63251118      -0.81599169      -7.08602972
C       -3.69989557      -1.27966457      -6.00835988
C       -4.10870159      -1.45514529      -4.73694008
C       -3.32377497      -2.02820776      -3.64256267
C       -3.39475318      -3.40490047      -3.39523088
C       -2.66649872      -3.97090675      -2.34748238
C       -1.86365994      -3.16267225      -1.54274541
C       -1.79227669      -1.79227669      -1.79227669
C       -2.51900649      -1.21923542      -2.83573556
C       -2.30992454      -1.57443179      -6.46736016
O       -1.32675666      -1.39824462      -5.75406587
C       -2.18071494      -2.06841090      -7.87336571
C       -1.08495337      -2.80392303      -8.14011583
C       -0.76301621      -3.37193999      -9.44849428
C        0.05567276      -2.66373646     -10.33491124
C        0.37952029      -3.20763087     -11.57954137
C       -0.11504054      -4.46028340     -11.94351487
C       -0.93340761      -5.16283553     -11.05988663
Br      -1.60189189      -6.86160523     -11.55206838
C       -1.26072566      -4.62670557      -9.81464523
C       -3.26898981      -1.69463175      -8.84005341
H       -6.90714083      -4.14511716      -7.50853103
H       -7.22915183      -2.52719304      -8.15049649
H       -6.62989965      -2.73441392      -6.48923144
H       -5.10417513      -3.59399743      -8.98849321
H       -4.47590712      -3.61646961      -7.34640653
H       -5.65677520      -0.70232717      -6.71181287
H       -4.34275873       0.20051447      -7.38767494
H       -5.13773262      -1.22989117      -4.46327800
H       -4.01531651      -4.04517977      -4.01806474
H       -2.72239835      -5.03980432      -2.16152912
H       -1.29608609      -3.60884332      -0.73106790
H       -2.44614398      -0.15337964      -3.03360828
H       -0.34816872      -3.01123849      -7.36448340
H        0.45339412      -1.68930492     -10.05821416
H        1.02201244      -2.65699434     -12.26245195
H        0.14548261      -4.87951500     -12.91196540
H       -1.89330964      -5.18386871      -9.12858538
H       -3.05227683      -0.68699684      -9.22083108
H       -3.26399120      -2.33772269      -9.72775976
C       -3.98798065       8.35619970       4.83277975
C       -4.56454883       8.21534147       3.42760230
N       -3.62492610       8.59214122       2.35896989
C       -2.37460125       7.82650767       2.33342367
C       -2.58463008       6.37410941       2.02918053
C       -2.08549302       5.40044809       2.81484584
C       -2.34103975       3.96484912       2.68865654
C       -3.40370155       3.39229628       3.39888670
C       -3.65675894       2.02272812       3.30540079
C       -2.84847031       1.21977843       2.50082886
C       -1.79227669       1.79227669       1.79227669
C       -1.53178137       3.15949445       1.88270164
C       -3.42476976       6.10174845       0.82519828
O       -3.25078078       5.12308523       0.10520114
C       -4.47858255       7.11978371       0.52412531
C       -5.53461699       6.68085576      -0.18648052
C       -6.66567104       7.51272806      -0.59494862
C       -6.65949778       8.13268180      -1.84920464
C       -7.74348072       8.91561617      -2.25144495
C       -8.83661747       9.08328766      -1.40106632
C       -8.83918306       8.46720021      -0.15025350
Br     -10.32165581       8.69243573       1.00147395
C       -7.76065516       7.68300374       0.25841756
C       -4.25535438       8.51657673       1.03174386
H       -4.77913450       8.20640731       5.57524722
H       -3.56342711       9.35266505       4.99074919
H       -3.21264293       7.60991532       5.03098676
H       -5.43631723       8.87956774       3.37078080
H       -4.94254196       7.19337438       3.30286692
H       -1.82963296       7.96691805       3.27436423
H       -1.70713277       8.25202426       1.57076217
H       -1.48528136       5.66109355       3.68452689
H       -4.04221605       4.00924308       4.02710189
H       -4.48416994       1.58375894       3.85580290
H       -3.05210495       0.15518432       2.42870804
H       -0.71680210       3.60074319       1.31558661
H       -5.59534712       5.64367963      -0.51513614
H       -5.81553670       8.00232832      -2.52374005
H       -7.73771806       9.38971234      -3.22999654
H       -9.67905518       9.69002394      -1.72308133
H       -7.77352038       7.20017966       1.23206369
H       -3.60817258       9.03852595       0.31340620
H       -5.18456453       9.09791081       1.04699832
C        6.11084879      -3.24024728       7.82586404
C        4.63731390      -3.37301543       8.19716327
N        3.98330719      -2.09011968       8.50261033
C        4.01270513      -1.10455148       7.41727598
C        3.23686824      -1.53988474       6.21116705
C        3.77796909      -1.54518474       4.97763312
C        3.16117756      -2.07340585       3.75996200
C        3.39575010      -3.40485172       3.39428271
C        2.83002466      -3.92560002       2.22926317
C        2.02680867      -3.11722271       1.42504623
C        1.79227669      -1.79227669       1.79227669
C        2.35616909      -1.26426275       2.95354562
C        1.84785879      -2.00816479       6.49569290
O        0.92241050      -1.85189714       5.70475952
C        1.63984721      -2.65368678       7.82895757
C        0.60531950      -3.51137814       7.91229459
C        0.22311336      -4.23812703       9.12221009
C       -0.74279009      -3.70384107       9.98192396
C       -1.12343593      -4.40033547      11.13075241
C       -0.53893495      -5.63228229      11.42549146
C        0.42581045      -6.16128741      10.56903192
Br       1.21641899      -7.83203730      10.96710920
C        0.81074701      -5.47209721       9.41923224
C        2.58938854      -2.28151753       8.93276890
H        6.56777369      -4.23344650       7.75956884
H        6.66095216      -2.66704894       8.57884025
H        6.24321568      -2.75751277       6.85281657
H        4.58800570      -4.00716684       9.09149322
H        4.12079026      -3.91932832       7.39866468
H        5.05023275      -0.85833582       7.16234668
H        3.59337911      -0.15573855       7.78080153
H        4.79941590      -1.19833060       4.83315529
H        4.01812560      -4.04517406       4.01526136
H        3.01236981      -4.95991741       1.95144457
H        1.58596629      -3.52857542       0.52145560
H        2.15622830      -0.23575837       3.24114523
H       -0.03096695      -3.70561016       7.04924739
H       -1.21094856      -2.74738618       9.75768734
H       -1.87974692      -3.98482995      11.79235083
H       -0.84397863      -6.17108448      12.31889195
H        1.55820792      -5.89466460       8.75289121
H        2.23595032      -1.34281942       9.38133500
H        2.56788847      -3.00997544       9.75160974
C       -0.00445707       0.01189536      -1.78238275
H       -0.66409135       0.67374010      -2.43557963
H        0.65740317      -0.63156657      -2.45157240
C       -0.90989263      -0.90692880      -0.91072765
C        0.90977584       0.90977584      -0.90977584
C       -0.00465871       1.77757030       0.00794375
H       -0.66225468       2.44313916      -0.64384735
H        0.64322798       2.43503045       0.67728295
C       -1.78241447       0.00034974      -0.00472694
H       -2.45427497      -0.65498947       0.64260836
H       -2.43311707       0.67328779      -0.65473579
C       -0.91132561       0.90220522       0.91563759
C       -0.01476271      -0.02253852       1.78660255
H       -0.67934791      -0.69751639       2.42135241
H        0.63392994       0.61504881       2.47327442
C        0.01484550      -1.77751727      -0.01636693
H        0.67870853      -2.42144646      -0.68295456
H       -0.62264859      -2.45592969       0.64226336
C        1.78714474       0.01002794       0.00389507
H        2.44202412       0.67113390       0.66197326
H        2.45385902      -0.65136977      -0.64189061
C        0.91606151      -0.90478549       0.90901405
