181
Properties=species:S:1:pos:R:3 pbc="F F F"
C        0.00000000       0.00000000       0.00000000
C        3.28252289       7.48108961      -3.68363553
C        3.92534194       7.22895233      -2.32348625
N        3.06811022       7.59426550      -1.18394941
C        1.77920595       6.89727723      -1.12833734
C        1.92186936       5.42059605      -0.91574254
C        1.32595896       4.52200343      -1.72311250
C        1.50531630       3.06980240      -1.68971463
C        2.49340504       2.48215197      -2.48961545
C        2.67229153       1.09778430      -2.48509995
C        1.86410739       0.29503087      -1.68022727
C        0.88237266       0.88237266      -0.88237266
C        0.69610258       2.26462481      -0.88353800
C        2.80900925       5.03461279       0.22161763
O        2.61850489       4.02717928       0.89632908
C        3.93416211       5.97515325       0.51653588
C        5.00025966       5.43968712       1.14066662
C        6.19756742       6.18430869       1.52813770
C        6.29486215       6.73082515       2.81242442
C        7.44210486       7.42956749       3.19373247
C        8.49538147       7.58621439       2.29246914
C        8.39489828       7.04355038       1.01203096
C        7.25267300       6.34362274       0.62393135
C        3.76413933       7.40876630       0.09894274
H        4.02241770       7.33143701      -4.47722225
H        2.90781031       8.50649854      -3.76282044
H        2.45611585       6.79047822      -3.87723889
H        4.83552102       7.84063607      -2.28079660
H        4.25037815       6.18254665      -2.27614639
H        1.19300886       7.12066550      -2.02752881
H        1.17949854       7.31393961      -0.30676897
H        0.69543721       4.86416325      -2.54158925
H        3.13124206       3.09857595      -3.11903094
H        3.44217047       0.64688972      -3.10495952
H        2.01003619      -0.78141108      -1.67766013
H       -0.06034747       2.71616117      -0.24760613
H        5.01919476       4.38362446       1.40864068
H        5.48259841       6.60795522       3.52614074
H        7.51652043       7.84645009       4.19524873
H        9.38739279       8.12698587       2.59809294
H        7.18510367       5.91737370      -0.37357429
H        3.18777814       7.92300115       0.88038662
H        4.72292933       7.93883284       0.06200058
C        9.48275282       7.20364213       0.08222285
C       10.39383101       7.33771898      -0.69649143
Br      11.86696738       7.55450989      -1.95560658
C       -7.19802491      -2.57018080      -4.67904232
C       -6.32163635      -1.64204992      -5.51409426
N       -6.46203608      -0.21881575      -5.16547331
C       -6.14527076       0.11324432      -3.77279409
C       -4.70616180      -0.12397087      -3.42807529
C       -4.33930950      -0.86620337      -2.36556201
C       -2.97679821      -1.27126804      -2.01676709
C       -2.48194148      -2.49287535      -2.49035563
C       -1.19080865      -2.90639053      -2.15797660
C       -0.38868614      -2.09979410      -1.35088530
C       -0.88237266      -0.88237266      -0.88237266
C       -2.17229516      -0.46375183      -1.20821840
C       -3.72663442       0.48256349      -4.37793349
O       -2.62926705       0.89938953      -4.01947756
C       -4.17891394       0.58613617      -5.80000172
C       -3.20259386       0.62946283      -6.72614913
C       -3.42736635       0.74037320      -8.16674526
C       -3.43501170       1.99916626      -8.77741742
C       -3.63355496       2.11069181     -10.15507672
C       -3.82696216       0.96490666     -10.92707123
C       -3.82221874      -0.28830591     -10.31589304
C       -3.62375334      -0.40802770      -8.94058335
C       -5.65950773       0.63793030      -6.05238547
H       -7.15785593      -3.58559494      -5.08762608
H       -8.24333587      -2.24555237      -4.68824104
H       -6.85779810      -2.62552866      -3.64050619
H       -6.62342553      -1.77236863      -6.56115953
H       -5.28152222      -1.98291905      -5.44462992
H       -6.81678771      -0.42828991      -3.09612555
H       -6.37953251       1.17196923      -3.59264384
H       -5.10004690      -1.28904655      -1.71209627
H       -3.09753278      -3.12861687      -3.12269930
H       -0.81029598      -3.85338797      -2.53033576
H        0.61666784      -2.42461825      -1.09833483
H       -2.54421514       0.49305561      -0.85226030
H       -2.15323934       0.59364644      -6.43458563
H       -3.27733299       2.89902748      -8.18610738
H       -3.63153035       3.09047071     -10.62666215
H       -3.97580582       1.05919522     -11.99967513
H       -3.61418136      -1.38904059      -8.47282971
H       -5.98979619       1.67719894      -5.91779542
H       -5.90397684       0.39785610      -7.09364084
C       -4.02007766      -1.47120285     -11.11289159
C       -4.18578451      -2.46187904     -11.78037787
Br      -4.45371847      -4.06371864     -12.85964673
C       -6.09792580       6.20819734       2.14112490
C       -6.77725089       4.88078290       1.81974674
N       -6.87232060       4.59517138       0.37883315
C       -5.58963541       4.54513593      -0.32995082
C       -4.71301337       3.41855149       0.12664309
C       -3.43862278       3.61753066       0.51492143
C       -2.54280386       2.62002605       1.10200343
C       -2.48676042       2.48365723       2.49475481
C       -1.62869372       1.54930949       3.07717257
C       -0.82322402       0.74687083       2.26927068
C       -0.88237266       0.88237266       0.88237266
C       -1.73541627       1.81548691       0.29336221
C       -5.37822835       2.08219203       0.16158403
O       -4.77477377       1.03718958      -0.06260827
C       -6.84521785       2.09379748       0.45376415
C       -7.34774889       0.96431865       0.98721261
C       -8.75331546       0.76359251       1.33683043
C       -9.62479808       0.17351733       0.41494746
C      -10.96457059      -0.03514993       0.74851920
C      -11.43863097       0.34673226       2.00376350
C      -10.56912375       0.93758932       2.91970463
C       -9.22942356       1.14861387       2.59432696
C       -7.60630200       3.34631091       0.12134998
H       -6.19528068       6.42562078       3.21017550
H       -6.55579234       7.03395300       1.58738394
H       -5.02822562       6.18364061       1.91196671
H       -7.79416988       4.93380654       2.22897728
H       -6.26278273       4.08066244       2.36562603
H       -5.07882263       5.51192425      -0.24954372
H       -5.77736788       4.42966212      -1.40682287
H       -3.01010702       4.61714547       0.47393724
H       -3.11235552       3.10209545       3.13439798
H       -1.59105397       1.44506991       4.15789582
H       -0.16000661       0.01874516       2.72753346
H       -1.78729962       1.90438473      -0.78826453
H       -6.70699066       0.10479992       1.18238796
H       -9.26396402      -0.13540359      -0.56414754
H      -11.63672150      -0.50067904       0.03167933
H      -12.48160708       0.17647805       2.25820060
H       -8.55633767       1.60315496       3.31655902
H       -7.86393781       3.31270919      -0.94625433
H       -8.57007557       3.38772182       0.64196420
C      -11.05790095       1.33020689       4.21606426
C      -11.46725186       1.65902411       5.30176545
Br     -12.12913766       2.19069374       7.05725244
C        2.15305503      -6.37247644       5.92171657
C        1.97177319      -6.97420340       4.53180393
N        0.56402237      -7.14524679       4.13705597
C       -0.23061691      -5.91297449       4.12246294
C        0.23629470      -4.92846589       3.09344736
C        0.51717267      -3.64853040       3.40537181
C        1.10385015      -2.64545551       2.51552768
C        2.49492477      -2.48599755       2.48425014
C        3.07543395      -1.52536850       1.65437333
C        2.26733975      -0.72028171       0.85174407
C        0.88237266      -0.88237266       0.88237266
C        0.29502315      -1.83835823       1.71088401
C        0.40917158      -5.49149906       1.72133378
O        0.21287209      -4.83058363       0.70589937
C        0.80515337      -6.93246462       1.65516149
C        1.44840406      -7.31497422       0.53590188
C        1.91140918      -8.67560332       0.26672591
C        1.09677024      -9.56228987      -0.44579724
C        1.53958815     -10.85795403      -0.71960231
C        2.79722067     -11.27272233      -0.28081627
C        3.60603692     -10.38845833       0.43192245
C        3.17121940      -9.09248443       0.70866055
C        0.44498027      -7.80273461       2.82624801
H        3.20926202      -6.41304205       6.20877288
H        1.57947775      -6.92508386       6.67256767
H        1.84936980      -5.32167447       5.95278867
H        2.44891755      -7.96240759       4.54562856
H        2.53170978      -6.36765351       3.80970790
H       -0.25265298      -5.46910939       5.12474675
H       -1.28087369      -6.16399581       3.91708501
H        0.37807487      -3.29711040       4.42600445
H        3.13498138      -3.11012900       3.10373856
H        4.15517242      -1.40756833       1.63127896
H        2.72448853       0.02318389       0.20498060
H       -0.78355144      -1.96928450       1.71768676
H        1.65422800      -6.60208769      -0.26213715
H        0.11720266      -9.24686149      -0.79965126
H        0.90619317     -11.54147017      -1.27994156
H        3.13725490     -12.28114970      -0.50211887
H        3.81065290      -8.40688053       1.25851822
H       -0.59651847      -8.12860940       2.69830174
H        1.02990513      -8.72970994       2.84014652
C        4.90492385     -10.81587718       0.88337107
C        5.99274166     -11.17384047       1.26145928
Br       7.75165105     -11.75263684       1.87279595
