138
Properties=species:S:1:pos:R:3 pbc="F F F"
N        2.06003962       6.81832601      -3.40356720
C        2.93997629       6.25454937      -3.88594814
C        4.01485050       5.56587598      -4.47519376
C        4.24408251       4.25809937      -4.24694323
C        3.40481657       3.40189588      -3.40308360
C        2.28877926       2.75606287      -3.94793719
C        1.48189929       1.94957375      -3.14106653
C        1.79163205       1.79163205      -1.79163205
C        2.90017501       2.43243212      -1.24015507
C        3.70742425       3.23845307      -2.04697416
S        5.12560242       6.43313789      -5.51821645
C        3.98474336       6.90922954      -6.80585479
C        3.73846526       6.04914150      -7.88155079
C        2.84775907       6.42252684      -8.89174226
C        2.20693007       7.65819612      -8.82741672
C        2.45114625       8.52608871      -7.76551017
C        3.34464246       8.15341800      -6.75769786
H        5.09142341       3.74757044      -4.69935581
H        2.03437816       2.87614076      -4.99906923
H        0.61557995       1.45468012      -3.57273432
H        3.14128554       2.31477286      -0.18700722
H        4.56723217       3.73782075      -1.60554567
H        4.23761860       5.08551463      -7.94592154
H        2.66396664       5.74556222      -9.72302037
H        1.95396139       9.49092930      -7.71015795
H        3.52732413       8.84067863      -5.93313008
C        1.28812401       8.04184113      -9.86771088
C        0.51862393       8.36314382     -10.73895723
Br      -0.72559261       8.88266311     -12.14768890
N       -6.87382514      -2.23271741      -3.17539028
C       -6.29621565      -3.06961510      -3.71464305
C       -5.59064494      -4.09191565      -4.37335965
C       -4.25793584      -4.24357371      -4.24761556
C       -3.40159105      -3.40386814      -3.40433686
C       -3.21677542      -3.72222209      -2.05378181
C       -2.41026074      -2.91526257      -1.24701625
C       -1.79163205      -1.79163205      -1.79163205
C       -1.97149590      -1.46603629      -3.13523001
C       -2.77747768      -2.27316366      -3.94221014
S       -6.45537136      -5.19477875      -5.42680665
C       -7.53815699      -5.94156335      -4.22010735
C       -7.11665329      -7.05987922      -3.49262505
C       -7.96504007      -7.64707373      -2.54991438
C       -9.23650676      -7.11762339      -2.33841276
C       -9.66982492      -6.00972185      -3.06319836
C       -8.82218077      -5.42540448      -4.00817308
H       -3.72813311      -5.03094685      -4.77926970
H       -3.69887954      -4.59421507      -1.61649354
H       -2.27536526      -3.16902724      -0.19860189
H       -1.49403239      -0.58766611      -3.56136711
H       -2.91508209      -2.00739564      -4.98812085
H       -6.12947874      -7.48576725      -3.65380878
H       -7.62642512      -8.51600908      -1.99011503
H      -10.66036952      -5.59251144      -2.90216768
H       -9.17259612      -4.56003909      -4.56849763
C      -10.10972204      -7.72204690      -1.36590707
C      -10.84103984      -8.22825158      -0.55143357
Br     -12.02351886      -9.04674175       0.76550121
N       -2.49380676       6.91826960       2.86985648
C       -3.24104097       6.32539696       3.51403588
C       -4.15381436       5.60118177       4.30092411
C       -4.24547919       4.25826020       4.24538571
C       -3.40464876       3.40172393       3.40342335
C       -2.16584565       2.95183815       3.87509551
C       -1.35901227       2.14534494       3.06818236
C       -1.79163205       1.79163205       1.79163205
C       -3.02314612       2.23655802       1.31305807
C       -3.83029242       3.04254302       2.12001604
S       -5.24225892       6.46345376       5.37124407
C       -4.03506772       7.21361998       6.45113999
C       -3.57076408       6.52271173       7.57568174
C       -2.62794537       7.11064897       8.42343384
C       -2.15312083       8.39141444       8.14800764
C       -2.61484584       9.09192540       7.03597390
C       -3.56024640       8.50468053       6.19083140
H       -4.97028552       3.71780691       4.85025724
H       -1.81553919       3.22587391       4.86817504
H       -0.39723368       1.80353119       3.44222952
H       -3.36085279       1.96610361       0.31610921
H       -4.78724941       3.38828822       1.73506095
H       -3.93892822       5.52571101       7.80441553
H       -2.27408127       6.56388055       9.29458741
H       -2.24779414      10.09100837       6.81624613
H       -3.91354096       9.06254469       5.32504718
C       -1.18056463       8.99618522       9.02092616
C       -0.36604882       9.50268074       9.75199543
Br       0.95095437      10.32164116      10.93407260
N        6.71818560      -1.85830901       3.70543823
C        6.18909077      -2.80811142       4.08327161
C        5.54278247      -3.96832914       4.54480864
C        4.25733681      -4.24254635       4.24924195
C        3.40157021      -3.40416052       3.40406531
C        3.39715845      -3.58025184       2.01536902
C        2.59061804      -2.77326854       1.20865300
C        1.79163205      -1.79163205       1.79163205
C        1.79103408      -1.60809312       3.17363501
C        2.59704536      -2.41532287       3.98048325
S        6.41560411      -5.09028102       5.57107163
C        7.69814636      -5.57399850       4.42768283
C        7.48829630      -6.63761014       3.54325111
C        8.49315007      -7.01898286       2.64989525
C        9.70921670      -6.33866477       2.64466144
C        9.93223245      -5.28379109       3.52672159
C        8.92821163      -4.90544675       4.42209993
H        3.77047208      -5.13755824       4.63031935
H        4.02073191      -4.34013122       1.54872501
H        2.59643543      -2.91562027       0.13093869
H        1.17246362      -0.84012934       3.63047265
H        2.59276386      -2.26054089       5.05729384
H        6.54618032      -7.18009670       3.54277775
H        8.31855812      -7.84720886       1.96678224
H       10.87867372      -4.74954123       3.52683368
H        9.11482026      -4.07957627       5.10673630
C       10.74371350      -6.73098497       1.72297753
C       11.61010458      -7.05955314       0.95106726
Br      13.01098567      -7.59082008      -0.29704636
C       -0.00445707       0.01189536      -1.78238275
H       -0.66409135       0.67374010      -2.43557963
H        0.65740317      -0.63156657      -2.45157240
C       -0.90989263      -0.90692880      -0.91072765
C        0.90977584       0.90977584      -0.90977584
C       -0.00465871       1.77757030       0.00794375
H       -0.66225468       2.44313916      -0.64384735
H        0.64322798       2.43503045       0.67728295
C       -1.78241447       0.00034974      -0.00472694
H       -2.45427497      -0.65498947       0.64260836
H       -2.43311707       0.67328779      -0.65473579
C       -0.91132561       0.90220522       0.91563759
C       -0.01476271      -0.02253852       1.78660255
H       -0.67934791      -0.69751639       2.42135241
H        0.63392994       0.61504881       2.47327442
C        0.01484550      -1.77751727      -0.01636693
H        0.67870853      -2.42144646      -0.68295456
H       -0.62264859      -2.45592969       0.64226336
C        1.78714474       0.01002794       0.00389507
H        2.44202412       0.67113390       0.66197326
H        2.45385902      -0.65136977      -0.64189061
C        0.91606151      -0.90478549       0.90901405
