109
Properties=species:S:1:pos:R:3 pbc="F F F"
C        0.00000000       0.00000000       0.00000000
N        1.15013560       5.90842199      -2.49366318
C        2.03007227       5.34464535      -2.97604412
C        3.10494648       4.65597196      -3.56528973
C        3.33417848       3.34819534      -3.33703921
C        2.49491254       2.49199185      -2.49317958
C        1.37887523       1.84615884      -3.03803317
C        0.57199526       1.03966973      -2.23116250
C        0.88172803       0.88172803      -0.88172803
C        1.99027098       1.52252810      -0.33025105
C        2.79752023       2.32854905      -1.13707013
S        4.21569840       5.52323387      -4.60831242
C        3.07483934       5.99932552      -5.89595076
C        2.82856124       5.13923748      -6.97164677
C        1.93785505       5.51262282      -7.98183824
C        1.29702604       6.74829209      -7.91751270
Br       0.09092404       7.25189675      -9.28309017
C        1.54124223       7.61618468      -6.85560615
C        2.43473844       7.24351398      -5.84779383
H        4.18151939       2.83766642      -3.78945178
H        1.12447414       1.96623673      -4.08916520
H       -0.29432407       0.54477610      -2.66283029
H        2.23138152       1.40486883       0.72289681
H        3.65732814       2.82791672      -0.69564164
H        3.32771458       4.17561060      -7.03601752
H        1.75406262       4.83565819      -8.81311634
H        1.04405736       8.58102527      -6.80025393
H        2.61742010       7.93077460      -5.02322605
N       -4.18380772      -4.97946707      -0.38894597
C       -4.13997943      -4.70491105      -1.50587126
C       -4.08644160      -4.36953102      -2.87023555
C       -3.34347589      -3.34465754      -3.33127959
C       -2.49334924      -2.49189860      -2.49483613
C       -1.17438766      -2.87047518      -2.21820441
C       -0.36779012      -2.06383594      -1.41120143
C       -0.88172803      -0.88172803      -0.88172803
C       -2.19470665      -0.49776651      -1.15057696
C       -3.00120021      -1.30396638      -1.95797282
S       -5.04161906      -5.28507534      -4.02055029
C       -4.28294859      -6.88588064      -3.80128639
C       -3.15343006      -7.23784567      -4.54816975
C       -2.56073320      -8.49222726      -4.37935565
C       -3.10092513      -9.39563532      -3.46627039
Br      -2.29766211     -11.09130077      -3.23694809
C       -4.23037402      -9.05909222      -2.72356682
C       -4.82448012      -7.80595837      -2.89560777
H       -3.32889115      -3.09080457      -4.38894187
H       -0.76404211      -3.79382566      -2.62200831
H        0.65422151      -2.36792880      -1.19957503
H       -2.59952725       0.42123662      -0.73506291
H       -4.02579358      -0.99756379      -2.15752914
H       -2.72713764      -6.54390221      -5.26830284
H       -1.68278084      -8.75470775      -4.96534856
H       -4.65576435      -9.75970206      -2.00987015
H       -5.70708079      -7.55490721      -2.30943276
N       -2.21790649       1.36114042       5.97317386
C       -2.78392002       2.17648146       5.39036026
C       -3.47532584       3.17244979       4.67843254
C       -3.33623068       3.33486256       3.34831979
C       -2.49335198       2.49483478       2.49189722
C       -3.00567583       1.31257997       1.94481144
C       -2.19878286       0.50572310       1.13832154
C       -0.88172803       0.88172803       0.88172803
C       -0.36263754       2.05658760       1.42382499
C       -1.16952809       2.86378712       2.22982419
S       -4.53245596       4.27234602       5.54244271
C       -5.71957375       3.09083412       6.15970775
C       -6.82567529       2.73213934       5.38163085
C       -7.75727417       1.80951735       5.86552459
C       -7.58403880       1.24924232       7.12954972
Br      -8.84331601      -0.00006518       7.78266014
C       -6.49110978       1.60556826       7.91635502
C       -5.56200973       2.53087826       7.43315826
H       -3.86737563       4.12264588       2.81861608
H       -4.03096014       1.00642380       2.14249213
H       -2.60480296      -0.41210588       0.72058524
H        0.66559662       2.34976015       1.22919001
H       -0.75313259       3.77595370       2.65180022
H       -6.97489364       3.16766588       4.39678318
H       -8.61314461       1.53808525       5.25160730
H       -6.35092860       1.17156289       8.90284507
H       -4.71217265       2.80144332       8.05780479
N        4.40963043      -0.35966001       4.78293033
C        4.30913351      -1.48393440       4.55769382
C        4.18637291      -2.85727590       4.28255936
C        3.34285223      -3.33136047       3.34520033
C        2.49214346      -2.49499250       2.49294801
C        2.99091107      -1.98262742       1.28952875
C        2.18421335      -1.17563743       0.48297671
C        0.88172803      -0.88172803       0.88172803
C        0.37730104      -1.38626836       2.07948073
C        1.18363838      -2.19368447       2.88581656
S        5.13119477      -4.00893360       5.20711631
C        6.76612210      -3.47925446       4.72473906
C        7.36430309      -4.00208002       3.57306238
C        8.64563292      -3.59023158       3.19645161
C        9.32970753      -2.65848680       3.97463650
Br      11.06189963      -2.10035240       3.46365894
C        8.74727599      -2.13778953       5.12796754
C        7.46746266      -2.55285090       5.50573268
H        3.25028192      -4.39913636       3.15921932
H        4.00799375      -2.20131438       0.97056794
H        2.58163205      -0.77993132      -0.44828105
H       -0.63652564      -1.15473248       2.39514670
H        0.78186080      -2.57822061       3.82080510
H        6.84302418      -4.73453149       2.96178703
H        9.10050002      -4.00337695       2.29896018
H        9.27615058      -1.41067244       5.73851354
H        7.02319021      -2.13875228       6.40947827
