130
Properties=species:S:1:pos:R:3 pbc="F F F"
N        2.06003962       6.81832601      -3.40356720
C        2.93997629       6.25454937      -3.88594814
C        4.01485050       5.56587598      -4.47519376
C        4.24408251       4.25809937      -4.24694323
C        3.40481657       3.40189588      -3.40308360
C        2.28877926       2.75606287      -3.94793719
C        1.48189929       1.94957375      -3.14106653
C        1.79163205       1.79163205      -1.79163205
C        2.90017501       2.43243212      -1.24015507
C        3.70742425       3.23845307      -2.04697416
S        5.12560242       6.43313789      -5.51821645
C        3.98474336       6.90922954      -6.80585479
C        3.73846526       6.04914150      -7.88155079
C        2.84775907       6.42252684      -8.89174226
C        2.20693007       7.65819612      -8.82741672
Br       1.00082807       8.16180078     -10.19299420
C        2.45114625       8.52608871      -7.76551017
C        3.34464246       8.15341800      -6.75769786
H        5.09142341       3.74757044      -4.69935581
H        2.03437816       2.87614076      -4.99906923
H        0.61557995       1.45468012      -3.57273432
H        3.14128554       2.31477286      -0.18700722
H        4.56723217       3.73782075      -1.60554567
H        4.23761860       5.08551463      -7.94592154
H        2.66396664       5.74556222      -9.72302037
H        1.95396139       9.49092930      -7.71015795
H        3.52732413       8.84067863      -5.93313008
N       -6.84859142      -2.14491961      -3.28842180
C       -6.27891959      -3.00832311      -3.79323111
C       -5.58304502      -4.06300144      -4.40987378
C       -4.25783088      -4.24332954      -4.24796468
C       -3.40158119      -3.40393401      -3.40428085
C       -3.25692725      -3.69346419      -2.04238787
C       -2.45040768      -2.88649880      -1.23563309
C       -1.79163205      -1.79163205      -1.79163205
C       -1.93132607      -1.49481231      -3.14662382
C       -2.73731204      -2.30196344      -3.95357600
S       -6.44909121      -5.17034385      -5.45752171
C       -7.57834565      -5.86129388      -4.26018816
C       -7.20183563      -6.97122071      -3.49610122
C       -8.08661642      -7.51473405      -2.56067771
C       -9.34943439      -6.95004415      -2.39306437
Br     -10.54493266      -7.68437265      -1.12631773
C       -9.73807125      -5.85017732      -3.15449656
C       -8.85404899      -5.30957710      -4.09213223
H       -3.73490734      -5.05590947      -4.74753285
H       -3.77053591      -4.54272859      -1.59632364
H       -2.34684636      -3.11767935      -0.17846868
H       -1.42246561      -0.63879069      -3.58180932
H       -2.84334674      -2.05866058      -5.00859126
H       -6.22181100      -7.42438620      -3.62285756
H       -7.78283785      -8.37754993      -1.97216145
H      -10.72167267      -5.40560762      -3.02776835
H       -9.16969587      -4.45006006      -4.68137690
N       -2.13702418       6.84603043       3.29887823
C       -2.99338246       6.27407339       3.81301795
C       -4.03945482       5.57540735       4.44105807
C       -4.24433327       4.25815646       4.24663538
C       -3.40478917       3.40185857       3.40314830
C       -2.26294936       2.79292037       3.93690959
C       -1.45607793       1.98643127       3.13003037
C       -1.79163205       1.79163205       1.79163205
C       -2.92601348       2.39555558       1.25119314
C       -3.73324467       3.20156752       2.05803929
S       -5.14624497       6.44127441       5.48943738
C       -3.98843337       6.97085794       6.74053638
C       -3.69953243       6.14061916       7.82900597
C       -2.79552158       6.55587584       8.81063075
C       -2.18403230       7.80351380       8.70499680
Br      -0.95992063       8.36376544      10.03193698
C       -2.47074530       8.64190663       7.63009320
C       -3.37750876       8.22735641       6.65089315
H       -5.06995714       3.73946389       4.72892863
H       -1.98837540       2.94199681       4.97921594
H       -0.56968246       1.52036901       3.55294292
H       -3.18740151       2.24914210       0.20652200
H       -4.61344531       3.67202582       1.62512745
H       -4.17549509       5.16798910       7.92557057
H       -2.57851278       5.90184150       9.65219495
H       -1.99658010       9.61590836       7.54256018
H       -3.59349076       8.89185600       5.81578607
N        6.63024679      -1.73344829       3.91823777
C        6.12833311      -2.72080730       4.23133340
C        5.51522756      -3.92690174       4.61379094
C        4.25702341      -4.24221416       4.24988754
C        3.40157919      -3.40426665       3.40395020
C        3.46418460      -3.51840159       2.01019313
C        2.65763196      -2.71141131       1.20349630
C        1.79163205      -1.79163205       1.79163205
C        1.72398013      -1.66997920       3.17880287
C        2.53000998      -2.47724390       3.98559760
S        6.39259980      -5.05520980       5.62914716
C        7.74295373      -5.43246886       4.52440510
C        7.61852777      -6.46363569       3.58699410
C        8.67651190      -6.76170527       2.72381101
C        9.86021046      -6.03063140       2.80170105
Br      11.29007136      -6.43293273       1.63261895
C        9.99826706      -5.00751939       3.73695868
C        8.94116292      -4.71252696       4.60206844
H        3.79468268      -5.17323175       4.57043523
H        4.14027812      -4.22949725       1.53981277
H        2.71569470      -2.80527647       0.12202322
H        1.05293812      -0.95016486       3.63996264
H        2.47296546      -2.37086643       5.06676669
H        6.70236773      -7.04521311       3.52147393
H        8.56822222      -7.56539194       1.99893507
H       10.91912618      -4.43396264       3.80195982
H        9.06148639      -3.91074712       5.32889932
C       -0.00445707       0.01189536      -1.78238275
H       -0.66409135       0.67374010      -2.43557963
H        0.65740317      -0.63156657      -2.45157240
C       -0.90989263      -0.90692880      -0.91072765
C        0.90977584       0.90977584      -0.90977584
C       -0.00465871       1.77757030       0.00794375
H       -0.66225468       2.44313916      -0.64384735
H        0.64322798       2.43503045       0.67728295
C       -1.78241447       0.00034974      -0.00472694
H       -2.45427497      -0.65498947       0.64260836
H       -2.43311707       0.67328779      -0.65473579
C       -0.91132561       0.90220522       0.91563759
C       -0.01476271      -0.02253852       1.78660255
H       -0.67934791      -0.69751639       2.42135241
H        0.63392994       0.61504881       2.47327442
C        0.01484550      -1.77751727      -0.01636693
H        0.67870853      -2.42144646      -0.68295456
H       -0.62264859      -2.45592969       0.64226336
C        1.78714474       0.01002794       0.00389507
H        2.44202412       0.67113390       0.66197326
H        2.45385902      -0.65136977      -0.64189061
C        0.91606151      -0.90478549       0.90901405
