193
Properties=species:S:1:pos:R:3 pbc="F F F"
C        0.00000000       0.00000000       0.00000000
C        0.88194429       0.88194429      -0.88194429
C        1.94140628       1.58741539      -0.31431452
C        2.74852856       2.39155163      -1.12254567
C        2.50000613       2.48287874      -2.49655537
C        1.43233989       1.77181333      -3.05621876
C        0.62128207       0.97165922      -2.24867548
C        3.34775814       3.31983720      -3.34974594
C        4.45213171       2.95146322      -4.03364844
C        5.12600264       3.97389629      -4.92984951
C        5.36562899       3.37922364      -6.31247244
C        6.25260629       2.14018671      -6.21869036
C        5.93631789       1.26529237      -5.02950564
C        5.09220461       1.62993630      -4.04220116
N        4.82313844       0.81986806      -2.97071371
C        5.22587928      -0.39920132      -3.03203461
S        4.80872919      -1.57511124      -1.82887265
C        5.52307648      -2.92918600      -2.79194683
C        6.19307767      -2.28939216      -3.98351445
O        6.81923784      -2.92933352      -4.82224029
N        5.98978007      -0.93345487      -4.01572993
C        6.63844110      -0.07287169      -4.97986263
H        6.52723715      -0.56232298      -5.95674235
C        8.12742376       0.08166115      -4.66254267
C        9.09055952      -0.39849416      -5.56533147
C       10.45418728      -0.26710844      -5.28973560
C       10.86649452       0.34126396      -4.10671256
C        9.92893311       0.81905952      -3.19528631
C        8.56596268       0.69014487      -3.47139355
H        2.15533281       1.51145927       0.74775141
H        3.58794343       2.92421645      -0.68247970
H        1.23389232       1.83212167      -4.12284367
H       -0.20256599       0.42148727      -2.69434360
H        2.97900050       4.34078838      -3.43282754
H        4.51769181       4.88047003      -5.03521027
H        6.07864705       4.28257829      -4.47970979
H        5.83353379       4.12091551      -6.96953300
H        4.40488244       3.11050102      -6.77127696
H        7.29979947       2.45991918      -6.15186392
H        6.15032198       1.56421521      -7.14586267
H        4.73524452      -3.60480042      -3.13364426
H        6.26323062      -3.46729586      -2.19517277
H        8.78646298      -0.89105948      -6.48744907
H       11.18355745      -0.64741225      -6.00038842
H       10.24527648       1.29202167      -2.26914968
H        7.84873951       1.07322075      -2.74684214
C       12.27185663       0.47495274      -3.82266213
C       13.44884740       0.58691710      -3.58476990
Br      15.35194193       0.76795400      -3.20011829
C       -0.88194429      -0.88194429      -0.88194429
C       -0.30440738      -1.63941262      -1.89931619
C       -1.11191825      -2.44732922      -2.70337838
C       -2.49284509      -2.50235201      -2.48424315
C       -3.06299337      -1.73625707      -1.46112154
C       -2.25775558      -0.92400266      -0.65985853
C       -3.34337069      -3.35329744      -3.32067315
C       -3.71354561      -4.63151021      -3.09218756
C       -4.67872654      -5.29190516      -4.05911673
C       -5.82434151      -5.94115936      -3.29182419
C       -5.29371521      -6.99488194      -2.32288621
C       -4.01615656      -6.58381465      -1.63114469
C       -3.30730261      -5.48702208      -1.97001737
N       -2.14838201      -5.13584326      -1.32949495
C       -1.85900197      -5.75741381      -0.24229679
S       -0.51864684      -5.30155671       0.75771296
C       -1.00507850      -6.44912130       2.06836247
C       -2.16745424      -7.24212750       1.52238178
O       -2.71183352      -8.14705235       2.14674125
N       -2.54081969      -6.80755273       0.27631730
C       -3.53915265      -7.48863722      -0.51764216
H       -4.38411906      -7.69152771       0.15399025
C       -2.99874349      -8.81404485      -1.05883924
C       -3.57898317     -10.02677574      -0.65163791
C       -3.09615167     -11.24582942      -1.13483335
C       -2.02577283     -11.26299321      -2.02570499
C       -1.43207127     -10.07322344      -2.43798423
C       -1.91582900      -8.85446347      -1.95720863
H        0.76819364      -1.61874948      -2.06848483
H       -0.65766710      -3.05444440      -3.48252807
H       -4.13360996      -1.77561525      -1.27963246
H       -2.71058581      -0.33624065       0.13356159
H       -3.72012682      -2.83290956      -4.19958005
H       -5.09472250      -4.56812243      -4.77052717
H       -4.14372814      -6.04596458      -4.65124240
H       -6.53496081      -6.40175032      -3.98727116
H       -6.37811217      -5.17401079      -2.73453747
H       -5.11082544      -7.92376819      -2.87698895
H       -6.06999027      -7.21088860      -1.57952098
H       -1.32357380      -5.89528228       2.95476773
H       -0.17772590      -7.12119365       2.30781202
H       -4.40601120     -10.03328429       0.05644292
H       -3.55762457     -12.17333649      -0.80557255
H       -0.59454733     -10.08110539      -3.13079511
H       -1.43946349      -7.93494551      -2.29439340
C       -1.52775807     -12.51966532      -2.52204812
C       -1.11067070     -13.57212821      -2.93773549
Br      -0.43627570     -15.27387169      -3.60986681
C       -0.88194429       0.88194429       0.88194429
C       -0.73778721       2.26745189       0.83789709
C       -1.54672937       3.07272990       1.64316660
C       -2.50252588       2.49246652       2.48444784
C       -2.63786231       1.09999278       2.52251689
C       -1.82626391       0.29332672       1.72202614
C       -3.35801060       3.33310906       3.32622161
C       -4.57917250       3.82749674       3.03057413
C       -5.32452952       4.60769586       4.09752305
C       -6.74510463       4.07396899       4.23825145
C       -7.49898794       4.19616128       2.91633414
C       -6.65118466       3.86947666       1.71045458
C       -5.31710543       3.67724998       1.76998665
N       -4.56795385       3.38480700       0.66095937
C       -5.19745671       3.07815649      -0.41690064
S       -4.38091258       2.52309945      -1.84152143
C       -5.93667342       2.12079459      -2.67163070
C       -7.03699875       2.61406638      -1.76386517
O       -8.22688004       2.53803040      -2.05276582
N       -6.54084104       3.12151199      -0.59029790
C       -7.37848681       3.77897527       0.38796996
H       -8.26265551       3.14064335       0.51835766
C       -7.82288673       5.15672116      -0.10798031
C       -9.18435135       5.41313354      -0.34008807
C       -9.60659233       6.66514532      -0.79492322
C       -8.67054487       7.67012513      -1.02619897
C       -7.31569363       7.43584366      -0.80825835
C       -6.89343040       6.18544602      -0.35137532
H       -0.01161825       2.73089821       0.17652421
H       -1.44845760       4.15426727       1.59191470
H       -3.38033748       0.63976305       3.16875714
H       -1.94230390      -0.78618080       1.75714178
H       -2.92350250       3.52288529       4.30622863
H       -4.82302777       4.53973533       5.07060900
H       -5.34441257       5.67116714       3.82535541
H       -7.28088012       4.62089440       5.02220778
H       -6.71576613       3.02135856       4.54953574
H       -7.87235030       5.22277394       2.81645834
H       -8.37431803       3.53693861       2.94914321
H       -6.02575225       1.03951087      -2.80117476
H       -5.99368473       2.63257042      -3.63514762
H       -9.92833478       4.63451025      -0.17999246
H      -10.66455901       6.84257784      -0.97060324
H       -6.58069352       8.21574368      -0.98998937
H       -5.82949247       6.02351576      -0.18420584
C       -9.10622483       8.95959785      -1.49635117
C       -9.47110679      10.03953125      -1.89010364
Br     -10.06109007      11.78569222      -2.52676808
C        0.88194429      -0.88194429       0.88194429
C        1.51915964      -0.33148840       1.99248815
C        2.32334795      -1.13983889       2.79943902
C        2.48276218      -2.49725673       2.49942134
C        1.83995809      -3.03963986       1.38077404
C        1.03993396      -2.23164780       0.57003501
C        3.31996939      -3.35087618       3.34649570
C        2.93633461      -4.09529992       4.40560885
C        3.96757756      -4.97696571       5.08520515
C        3.42271736      -6.39149579       5.24311193
C        2.14583049      -6.38572378       6.07992909
C        1.23495325      -5.22072256       5.77544010
C        1.59145595      -4.18458586       4.98830026
N        0.74835728      -3.13644583       4.72891711
C       -0.48237054      -3.26420421       5.07687890
S       -1.69024152      -2.09320295       4.65952917
C       -3.03022850      -3.13983234       5.27623348
C       -2.36830785      -4.33172861       5.92377920
O       -2.99707306      -5.22149558       6.48772210
N       -1.00508681      -4.30022964       5.77691230
C       -0.13151640      -5.25521468       6.42173376
H       -0.57426445      -6.24557918       6.25034179
C       -0.05113645      -4.99518631       7.92757772
C       -0.53136136      -5.95668040       8.83207779
C       -0.46723301      -5.73393860      10.21010885
C        0.07328102      -4.54570105      10.69548896
C        0.54974629      -3.57676261       9.81677004
C        0.48807972      -3.79994239       8.43947900
H        1.38969735       0.71661099       2.24595431
H        2.80238800      -0.71443032       3.67782126
H        1.95336401      -4.09358086       1.14191281
H        0.54302197      -2.66401857      -0.29377566
H        4.35765196      -3.37675414       3.01821032
H        4.90174901      -5.01958964       4.51203344
H        4.21799659      -4.55538735       6.06755118
H        4.17194376      -7.03711425       5.71492428
H        3.21288463      -6.81975866       4.25401713
H        2.41966542      -6.35035186       7.14156530
H        1.61424520      -7.33035689       5.91579777
H       -3.65822983      -3.47502903       4.44728916
H       -3.62272214      -2.59726057       6.01656910
H       -0.97170388      -6.88433949       8.47021697
H       -0.84641880      -6.48967932      10.89327309
H        0.96985204      -2.64640569      10.19019011
H        0.86895134      -3.03072856       7.76912250
C        0.13765611      -4.31619211      12.11562328
C        0.19157025      -4.12397838      13.30498578
Br       0.27874485      -3.81318502      15.22808434
