105
Properties=species:S:1:pos:R:3 pbc="F F F"
C        0.00000000       0.00000000       0.00000000
C        0.88186815       0.88186815      -0.88186815
C        0.31366732       1.94514954      -1.57858639
C        1.11524103       2.75221268      -2.38646104
C        2.48427035       2.48620333      -2.49834543
O        3.24299129       3.30037872      -3.30150661
C        3.06484735       1.40916104      -1.80616714
C        2.24580906       0.61228132      -0.98762773
C        4.51636418       1.03485882      -1.88786851
O        4.95636281       0.16385129      -1.14175364
N        5.25883539       1.70972872      -2.83756133
N        6.57667976       1.41599125      -3.03261075
C        7.17927863       2.14241758      -3.91972757
C        8.57249196       1.93363966      -4.22028979
C        9.43274262       0.96439163      -3.73900451
C       10.75175346       1.10227566      -4.26746225
C       10.83074845       2.17059349      -5.12357467
Br      12.40548784       2.68054556      -6.00227371
S        9.36085563       2.99097748      -5.31215414
H       -0.75123144       2.15156777      -1.49930827
H        0.65258131       3.57594280      -2.92303307
H        2.69199610       4.04960020      -3.59352671
H        2.67733563      -0.22375982      -0.44084659
H        4.80663475       2.43984966      -3.38538907
H        6.64556266       2.94208211      -4.46482894
H        9.12504516       0.19581182      -3.03713034
H       11.58196305       0.45172938      -4.02042940
C       -0.88186815      -0.88186815      -0.88186815
C       -0.57541321      -2.23205202      -1.02993801
C       -1.37734290      -3.04081539      -1.83575646
C       -2.48135337      -2.49106298      -2.49640277
O       -3.24860023      -3.31550968      -3.28076672
C       -2.79280207      -1.12698841      -2.36038505
C       -1.98159914      -0.32801050      -1.53610847
C       -3.93964840      -0.44806009      -3.05138302
O       -4.21285273       0.71446760      -2.76358262
N       -4.60465189      -1.20434970      -3.99712384
N       -5.63143313      -0.67274112      -4.72110751
C       -6.20552596      -1.48869074      -5.54720709
C       -7.30338793      -1.05188910      -6.37114439
C       -7.85038917       0.21144371      -6.49719329
C       -8.94778110       0.23627199      -7.40998226
C       -9.18291184      -1.00964347      -7.93236130
Br     -10.55359057      -1.37889183      -9.15582471
S       -8.11053759      -2.19065389      -7.36279578
H        0.28550831      -2.66201634      -0.52313658
H       -1.12058471      -4.09143396      -1.93953851
H       -2.94856081      -4.23405720      -3.15250499
H       -2.20861940       0.72933395      -1.41513696
H       -4.32074817      -2.17234167      -4.13878365
H       -5.87417741      -2.53901554      -5.63928077
H       -7.47820498       1.07431319      -5.95409553
H       -9.52225519       1.12176512      -7.65363177
C       -0.88186815       0.88186815       0.88186815
C       -1.94411593       0.31336895       1.57991837
C       -2.75309627       1.11549610       2.38532237
C       -2.49801466       2.48767994       2.48312452
O       -3.31351249       3.24678263       3.28458151
C       -1.43369603       3.07192988       1.77454962
C       -0.62113434       2.24836467       0.97621910
C       -1.10354685       4.53619240       1.79935226
O       -0.07400923       4.93042804       1.25753048
N       -2.02232446       5.34907261       2.43472837
N       -1.84860794       6.70156351       2.47511031
C       -2.75201840       7.35525251       3.13415288
C       -2.68458422       8.78926763       3.25256957
C       -1.78873310       9.67070583       2.67669984
C       -2.04495827      11.02387828       3.05265482
C       -3.12211399      11.10542452       3.89737810
Br      -3.75438411      12.71547353       4.61844946
S       -3.83094401       9.60332934       4.22971391
H       -2.14967660      -0.75177736       1.50174537
H       -3.57776722       0.65310797       2.92068199
H       -3.90686854       2.65079365       3.77746081
H        0.20991318       2.68133275       0.42300283
H       -2.82998589       4.91925563       2.88263195
H       -3.59312587       6.83349990       3.62584795
H       -0.98583728       9.35310235       2.01904770
H       -1.46186464      11.87355948       2.71869772
C        0.88186815      -0.88186815       0.88186815
C        1.81722263      -1.72809656       0.29208406
C        2.62367204      -2.53645603       1.09378667
C        2.48492444      -2.49841047       2.48548420
O        3.29462201      -3.30664065       3.24361397
C        1.53674445      -1.65421601       3.08921507
C        0.73962250      -0.83785592       2.26823969
C        1.30150404      -1.56819003       4.56939744
O        0.54850291      -0.70344594       5.01001889
N        1.95840156      -2.50937359       5.33835028
N        1.77967390      -2.55560725       6.69000062
C        2.47949288      -3.45239141       7.30953949
C        2.38293724      -3.60481435       8.73866982
C        1.55024890      -2.95518701       9.63070285
C        1.76952441      -3.37428954      10.97767743
C        2.75936473      -4.32097438      11.04457751
Br       3.34119936      -5.10094119      12.64616655
S        3.41067238      -4.72048127       9.53283361
H        1.92396002      -1.76532331      -0.78963872
H        3.34636689      -3.19089707       0.61429323
H        3.95668790      -3.71928483       2.65915028
H        0.00257328      -0.17487422       2.71697491
H        2.58834343      -3.16480716       4.87872289
H        3.17056939      -4.11928340       6.76262092
H        0.82111034      -2.21140569       9.32547130
H        1.22873859      -2.99092798      11.83445527
