113
Properties=species:S:1:pos:R:3 pbc="F F F"
C        0.00000000       0.00000000       0.00000000
C        0.88186815       0.88186815      -0.88186815
C        0.31366732       1.94514954      -1.57858639
C        1.11524103       2.75221268      -2.38646104
C        2.48427035       2.48620333      -2.49834543
O        3.24299129       3.30037872      -3.30150661
C        3.06484735       1.40916104      -1.80616714
C        2.24580906       0.61228132      -0.98762773
C        4.51636418       1.03485882      -1.88786851
O        4.95636281       0.16385129      -1.14175364
N        5.25883539       1.70972872      -2.83756133
N        6.57667976       1.41599125      -3.03261075
C        7.17927863       2.14241758      -3.91972757
C        8.57249196       1.93363966      -4.22028979
C        9.43274262       0.96439163      -3.73900451
C       10.75175346       1.10227566      -4.26746225
C       10.83074845       2.17059349      -5.12357467
S        9.36085563       2.99097748      -5.31215414
H       -0.75123144       2.15156777      -1.49930827
H        0.65258131       3.57594280      -2.92303307
H        2.69199610       4.04960020      -3.59352671
H        2.67733563      -0.22375982      -0.44084659
H        4.80663475       2.43984966      -3.38538907
H        6.64556266       2.94208211      -4.46482894
H        9.12504516       0.19581182      -3.03713034
H       11.58196305       0.45172938      -4.02042940
C       12.04077794       2.56244058      -5.79876687
C       13.05417764       2.89061251      -6.36424033
Br      14.69275923       3.42123877      -7.27856310
C       -0.88186815      -0.88186815      -0.88186815
C       -0.56277699      -2.22706833      -1.04755793
C       -1.36467603      -3.03578989      -1.85344882
C       -2.48141142      -2.49090305      -2.49650465
O       -3.24823716      -3.31516265      -3.28147681
C       -2.80577095      -1.13173981      -2.34266478
C       -1.99429954      -0.33289849      -1.51852008
C       -3.96702448      -0.45782818      -3.01423884
O       -4.24939773       0.69861688      -2.71118690
N       -4.63405910      -1.21114455      -3.96092179
N       -5.67405806      -0.68290723      -4.66831647
C       -6.24828639      -1.49616988      -5.49696752
C       -7.35942366      -1.06243210      -6.30456566
C       -7.92104138       0.19625405      -6.41135143
C       -9.02830836       0.21900763      -7.31219065
C       -9.25583506      -1.02376234      -7.84531922
S       -8.16504142      -2.19921228      -7.29973356
H        0.30799151      -2.65314984      -0.55448628
H       -1.09796530      -4.08245603      -1.97113585
H       -2.93716881      -4.23175999      -3.16619420
H       -2.23116332       0.72062855      -1.38388764
H       -4.34148198      -2.17450406      -4.11588744
H       -5.90687191      -2.54187021      -5.60373160
H       -7.55221289       1.05726442      -5.86303886
H       -9.61466244       1.10084478      -7.54030418
C      -10.31597921      -1.30877325      -8.77723292
C      -11.20384994      -1.54746989      -9.55771065
Br     -12.63946182      -1.93342216     -10.81967712
C       -0.88186815       0.88186815       0.88186815
C       -1.93189084       0.31001290       1.59549951
C       -2.74083931       1.11210625       2.40096918
C       -2.49805714       2.48753755       2.48322442
O       -3.31314598       3.24651027       3.28522038
C       -1.44621575       3.07506054       1.75889925
C       -0.63341246       2.25163332       0.96067233
C       -1.12995523       4.54257509       1.76656119
O       -0.10947275       4.94137475       1.21112024
N       -2.05041546       5.35273703       2.40297295
N       -1.88934881       6.70714873       2.42878422
C       -2.79268530       7.35850840       3.09023009
C       -2.73793199       8.79417469       3.19431474
C       -1.85613812       9.67852987       2.60147078
C       -2.12178086      11.03275415       2.96695637
C       -3.19156900      11.11215439       3.82119322
S       -3.88270643       9.60663805       4.17464278
H       -2.12792498      -0.75774797       1.52946761
H       -3.55587950       0.64705138       2.94862631
H       -3.89601149       2.64966327       3.78944824
H        0.18811666       2.68715976       0.39537930
H       -2.84959504       4.91957064       2.86270780
H       -3.62400537       6.83351747       3.59495088
H       -1.05652890       9.36227994       1.93917848
H       -1.55010367      11.88470200       2.61931617
C       -3.68398686      12.34990366       4.36809486
C       -4.09638682      13.38651867       4.82612499
Br      -4.76320268      15.06263746       5.56672096
C        0.88186815      -0.88186815       0.88186815
C        1.82072844      -1.72436401       0.29231079
C        2.62719411      -2.53271186       1.09400878
C        2.48495608      -2.49841176       2.48545127
O        3.29477597      -3.30651573       3.24358493
C        1.53324128      -1.65801529       3.08891896
C        0.73613049      -0.84159692       2.26799070
C        1.29417752      -1.57618725       4.56872673
O        0.53798838      -0.71436546       5.00961390
N        1.95149728      -2.51764339       5.33698476
N        1.76958349      -2.56762161       6.68807666
C        2.47008061      -3.46420810       7.30713508
C        2.37040909      -3.62036397       8.73564835
C        1.53395754      -2.97495713       9.62722409
C        1.75096864      -3.39681873      10.97370400
C        2.74295689      -4.34124475      11.04071497
S        3.39892978      -4.73545865       9.52959883
H        1.93019758      -1.75868219      -0.78923516
H        3.35265731      -3.18421070       0.61468917
H        3.95927504      -3.71611026       2.65973770
H       -0.00363280      -0.18151723       2.71653797
H        2.58416197      -3.17040987       4.87730164
H        3.16412077      -4.12806999       6.76028296
H        0.80374808      -2.23221349       9.32202576
H        1.20715568      -3.01687705      11.83008910
C        3.18849790      -4.94248818      12.27099931
C        3.56163848      -5.44602955      13.30136244
Br       4.16497526      -6.26021336      14.96737249
