134
Properties=species:S:1:pos:R:3 pbc="F F F"
C        1.79177218       1.79177218      -1.79177218
C        1.22357134       2.85505356      -2.48849042
C        2.02514506       3.66211670      -3.29636506
C        3.39417438       3.39610736      -3.40824945
O        4.15289532       4.21028274      -4.21141064
C        3.97475137       2.31906507      -2.71607116
C        3.15571309       1.52218535      -1.89753175
C        5.42626820       1.94476284      -2.79777253
O        5.86626684       1.07375531      -2.05165767
N        6.16873942       2.61963274      -3.74746535
N        7.48658378       2.32589527      -3.94251478
C        8.08918266       3.05232161      -4.82963159
C        9.48239598       2.84354369      -5.13019382
C       10.34264665       1.87429565      -4.64890853
C       11.66165749       2.01217969      -5.17736627
C       11.74065248       3.08049751      -6.03347870
S       10.27075966       3.90088151      -6.22205817
H        0.15867259       3.06147180      -2.40921230
H        1.56248534       4.48584682      -3.83293709
H        3.60190012       4.95950422      -4.50343073
H        3.58723966       0.68614421      -1.35075061
H        5.71653877       3.34975369      -4.29529310
H        7.55546669       3.85198614      -5.37473297
H       10.03494919       1.10571584      -3.94703437
H       12.49186708       1.36163340      -4.93033343
C       12.95068196       3.47234460      -6.70867089
C       13.96408166       3.80051653      -7.27414436
Br      15.60266326       4.33114280      -8.18846712
C       -1.79177218      -1.79177218      -1.79177218
C       -1.44257701      -3.12332501      -2.00121331
C       -2.24440574      -3.93193889      -2.80728218
C       -3.39147031      -3.40041112      -3.40664976
O       -4.15729471      -4.22416320      -4.19313079
C       -3.74660441      -2.05473855      -3.20854464
C       -2.93447142      -1.25621562      -2.38474315
C       -4.94224135      -1.39471755      -3.83184468
O       -5.24623478      -0.25436261      -3.49108243
N       -5.61445677      -2.14075898      -4.78062176
N       -6.68611197      -1.62217661      -5.44670525
C       -7.26091138      -2.42871076      -6.28151371
C       -8.40387193      -2.00386198      -7.04839958
C       -9.00041261      -0.75815709      -7.10728114
C      -10.13137038      -0.74150294      -7.97833012
C      -10.34079482      -1.97569293      -8.53814093
S       -9.20596524      -3.13552459      -8.05220951
H       -0.54834941      -3.53877362      -1.54223365
H       -1.95398694      -4.96778794      -2.95949438
H       -3.81973409      -5.13486892      -4.11023207
H       -3.19479187      -0.21315705      -2.21618556
H       -5.30132632      -3.09171131      -4.96854793
H       -6.89557553      -3.46189779      -6.42471247
H       -8.63953008       0.09788533      -6.54605465
H      -10.74612013       0.13008617      -8.16779995
C      -11.41754367      -2.26454279      -9.44961100
C      -12.31932083      -2.50645455     -10.21296718
Br     -13.77741823      -2.89760539     -11.44724955
C       -1.79177218       1.79177218       1.79177218
C       -3.15893627       1.53928412       1.86889492
C       -3.96835894       2.34330922       2.67195865
C       -3.40469058       3.40309174       3.39074886
O       -4.23014007       4.17352569       4.17092294
C       -2.02702363       3.67134084       3.31152314
C       -1.22336414       2.84525885       2.50680720
C       -1.34257262       4.80063488       4.02559608
O       -0.11643754       4.87168094       4.00356133
N       -2.17461498       5.70639723       4.65482531
N       -1.66354206       6.79844533       5.29300644
C       -2.53629297       7.55306517       5.88177772
C       -2.12681383       8.73776403       6.59155563
C       -0.86708782       9.29622849       6.70253452
C       -0.86683417      10.47172398       7.51264531
C       -2.12601371      10.74901088       7.97960409
S       -3.29634159       9.64268516       7.45467259
H       -3.60211592       0.72036384       1.30687692
H       -5.03291655       2.13085234       2.71750037
H       -5.11361151       3.76200676       4.18921681
H       -0.15414086       3.03452556       2.43546806
H       -3.17945764       5.53961314       4.64251477
H       -3.61375340       7.30795961       5.86047278
H        0.01142873       8.87431448       6.22481364
H        0.01321687      11.06349425       7.73355652
C       -2.43053346      11.86831340       8.83285060
C       -2.68556875      12.80572926       9.54744454
Br      -3.09793924      14.32145142      10.70288252
C        1.79177218      -1.79177218       1.79177218
C        3.09196451      -1.38939362       2.08575719
C        3.90141218      -2.19263635       2.88957828
C        3.40615087      -3.40120419       3.39117613
O        4.22950092      -4.16634679       4.17874098
C        2.09805011      -3.82005526       3.09178224
C        1.29143887      -2.99420554       2.28978577
C        1.49415243      -5.11087018       3.56378097
O        0.30106273      -5.32543221       3.36518488
N        2.36075496      -5.98754178       4.18754076
N        1.93134727      -7.21042580       4.61322076
C        2.82209332      -7.92803781       5.22100473
C        2.49666570      -9.23960392       5.71986387
C        1.32145539      -9.95569436       5.58870108
C        1.38501353     -11.22268191       6.24350802
C        2.60481534     -11.40770585       6.84210749
S        3.66677743     -10.10690201       6.62001989
H        3.48295026      -0.45368014       1.69272629
H        4.91339280      -1.86173975       3.10613670
H        5.03939091      -3.65781561       4.36762856
H        0.27479499      -3.29932192       2.05001757
H        3.32726795      -5.70080022       4.33351739
H        3.85033070      -7.55430799       5.37754710
H        0.45734711      -9.58113318       5.04921911
H        0.57441644     -11.94086633       6.26855114
C        2.95510410     -12.58864721       7.58794614
C        3.24847094     -13.57768560       8.21258602
Br       3.72282030     -15.17687702       9.22257586
C       -0.00445707       0.01189536      -1.78238275
H       -0.66409135       0.67374010      -2.43557963
H        0.65740317      -0.63156657      -2.45157240
C       -0.90989263      -0.90692880      -0.91072765
C        0.90977584       0.90977584      -0.90977584
C       -0.00465871       1.77757030       0.00794375
H       -0.66225468       2.44313916      -0.64384735
H        0.64322798       2.43503045       0.67728295
C       -1.78241447       0.00034974      -0.00472694
H       -2.45427497      -0.65498947       0.64260836
H       -2.43311707       0.67328779      -0.65473579
C       -0.91132561       0.90220522       0.91563759
C       -0.01476271      -0.02253852       1.78660255
H       -0.67934791      -0.69751639       2.42135241
H        0.63392994       0.61504881       2.47327442
C        0.01484550      -1.77751727      -0.01636693
H        0.67870853      -2.42144646      -0.68295456
H       -0.62264859      -2.45592969       0.64226336
C        1.78714474       0.01002794       0.00389507
H        2.44202412       0.67113390       0.66197326
H        2.45385902      -0.65136977      -0.64189061
C        0.91606151      -0.90478549       0.90901405
