178
Properties=species:S:1:pos:R:3 pbc="F F F"
C        1.78750064       1.78750064      -1.78750064
C        1.27780149       2.93310856      -2.37603361
C        2.10665158       3.69646569      -3.19925235
C        3.41942865       3.29323040      -3.40864116
N        3.94200453       2.20090078      -2.80913576
C        3.11374090       1.46681299      -2.02253866
N        4.32601041       3.96801238      -4.23579110
C        4.03256913       4.97132023      -5.13353360
O        2.89963608       5.37084924      -5.39009632
C        5.17578423       5.61472868      -5.85789243
C        4.86115373       6.57176778      -6.83574418
C        5.86323387       7.24573782      -7.53789648
C        7.20179240       6.97316128      -7.26781648
C        7.53679607       6.03375865      -6.28394109
C        6.52208290       5.34660680      -5.58868004
C        8.95513876       5.71057005      -5.94659530
O        9.18923336       4.57339807      -5.55478700
N        9.84498974       6.75829737      -6.07797107
C       11.21569728       6.69448776      -5.78718442
C       11.95774633       7.86468325      -5.94678614
C       13.32260324       7.85513585      -5.65182574
C       13.90697612       6.67903903      -5.20471883
C       13.10439971       5.55996423      -5.07838116
N       11.78134574       5.55179086      -5.36416928
H        0.24968797       3.24153860      -2.21677562
H        1.70165956       4.59901564      -3.64906544
H        3.56897423       0.58351606      -1.58267315
H        5.24445856       3.55217044      -4.19519010
H        3.81966630       6.80294367      -7.06226711
H        5.59233636       7.97548175      -8.29705377
H        7.96336180       7.48005427      -7.85294147
H        6.82346358       4.62500001      -4.83653712
H        9.48790859       7.66544337      -6.33213909
H       11.49665375       8.78310253      -6.29448931
H       13.91014396       8.76092474      -5.77040336
H       13.49847894       4.60845153      -4.73364711
C       15.30896779       6.62909658      -4.87987256
C       16.48313582       6.58726978      -4.60781380
Br      18.38166621       6.51963938      -4.16791780
C       -1.78750064      -1.78750064      -1.78750064
C       -1.44965999      -3.10905017      -2.02823349
C       -2.26483354      -3.87393529      -2.86360078
C       -3.39306380      -3.29618893      -3.43204748
N       -3.75718613      -2.02084220      -3.17401273
C       -2.94248494      -1.29209209      -2.36851552
N       -4.26205900      -3.96302345      -4.30473144
C       -4.04309343      -5.17842220      -4.91590732
O       -3.00148518      -5.82450649      -4.83458997
C       -5.15028249      -5.74912158      -5.74900127
C       -4.88607942      -6.94205808      -6.44052818
C       -5.86904776      -7.56269410      -7.21512629
C       -7.13846904      -6.99772760      -7.30657350
C       -7.42723070      -5.81661924      -6.61064588
C       -6.42795608      -5.18720720      -5.84220646
C       -8.77390542      -5.17359285      -6.66480585
O       -8.81401401      -3.95438901      -6.54901542
N       -9.83710559      -6.04434332      -6.79980928
C      -11.18793001      -5.66875053      -6.84068892
C      -12.13198589      -6.68995848      -6.94727135
C      -13.49014764      -6.36644166      -6.97297553
C      -13.86691985      -5.03386950      -6.88994463
C      -12.87034306      -4.08007496      -6.79232708
N      -11.54989237      -4.37696669      -6.77044682
H       -0.56356287      -3.55552522      -1.58891410
H       -1.99790302      -4.91261285      -3.03922477
H       -3.26002773      -0.26494430      -2.21019142
H       -5.05539634      -3.38879567      -4.54762709
H       -3.89969216      -7.40359608      -6.38158883
H       -5.63545980      -8.48098530      -7.74842679
H       -7.87495668      -7.47587303      -7.94552783
H       -6.69127875      -4.27273799      -5.32098397
H       -9.65264895      -7.03479515      -6.79804695
H      -11.83347491      -7.73111005      -7.00966064
H      -14.23439287      -7.15340056      -7.05367863
H      -13.09672951      -3.02009214      -6.72375593
C      -15.25700037      -4.65821938      -6.90271717
C      -16.42119280      -4.34361241      -6.91341418
Br     -18.30359351      -3.83491954      -6.93071033
C       -1.78750064       1.78750064       1.78750064
C       -3.16199312       1.80759255       1.61735798
C       -3.93074982       2.64894084       2.42267895
C       -3.30365912       3.44356763       3.37407347
N       -1.96867084       3.40447005       3.57890018
C       -1.23964914       2.58793269       2.77551072
N       -3.97481000       4.34174462       4.21325927
C       -5.28387458       4.75602774       4.09752064
O       -6.03777754       4.44335162       3.17945248
C       -5.82482376       5.66208395       5.16149764
C       -7.12922890       6.15148944       4.98794734
C       -7.72639726       6.97579942       5.94467148
C       -7.02475968       7.32122541       7.09678506
C       -5.72821742       6.82957050       7.29670790
C       -5.12539292       6.01004691       6.32192991
C       -4.93479952       7.15948992       8.51801468
O       -3.71652003       7.20584780       8.39505061
N       -5.67442454       7.33618730       9.67064635
C       -5.14098620       7.61986169      10.93652157
C       -6.03919460       7.73235175      11.99766937
C       -5.55372783       7.99561480      13.28022220
C       -4.18638615       8.13731992      13.46702791
C       -3.36227252       8.01747980      12.36299278
N       -3.81739885       7.76680938      11.11309765
H       -3.64839377       1.19142137       0.86818706
H       -5.00924430       2.65120146       2.28929488
H       -0.16858019       2.60853673       2.95804651
H       -3.34626459       4.76785552       4.87769899
H       -7.69830282       5.89212273       4.09445152
H       -8.73445656       7.34910873       5.78130660
H       -7.49358017       7.99466971       7.80810767
H       -4.11907744       5.65242234       6.51350093
H       -6.66941985       7.18244789       9.63362331
H       -7.10767433       7.61859884      11.84797242
H       -6.24357685       8.08332707      14.11456814
H       -2.28353618       8.11707892      12.43996248
C       -3.64384819       8.39911804      14.77497069
C       -3.18947266       8.61837397      15.87037277
Br      -2.45478584       8.97289226      17.64154528
C        1.78750064      -1.78750064       1.78750064
C        2.47843929      -1.24837602       2.86012835
C        3.29745810      -2.08082844       3.62408307
C        3.40054809      -3.42637408       3.29437805
N        2.70133493      -3.97439184       2.27631430
C        1.92064560      -3.14311222       1.53933473
N        4.21306635      -4.34186991       3.97487764
C        5.18973593      -4.04670465       4.90098239
O        5.53964384      -2.91056019       5.21037761
C        5.88351609      -5.19317973       5.57170953
C        6.93828123      -4.88487390       6.44551055
C        7.62045723      -5.88748511       7.13892582
C        7.25281910      -7.21989141       6.97005964
C        6.19195734      -7.54703444       6.11550404
C        5.51656070      -6.53308205       5.40772699
C        5.74922366      -8.95764036       5.90544009
O        5.27146949      -9.23441143       4.81153751
N        5.89374895      -9.78903755       6.99847169
C        5.51699692     -11.13949195       7.04088059
C        5.70648132     -11.81807093       8.24466347
C        5.32942414     -13.15914319       8.34099750
C        4.77287070     -13.78361194       7.23425134
C        4.62348019     -13.04379196       6.07547295
N        4.98772766     -11.74484047       5.96473776
H        2.40193675      -0.19535028       3.11071517
H        3.82821212      -1.65177438       4.46975414
H        1.39799940      -3.62168630       0.71547774
H        4.09020859      -5.27927953       3.62233098
H        7.24187751      -3.84807340       6.59492616
H        8.44008446      -5.62240471       7.80238272
H        7.82221782      -7.98550608       7.48863364
H        4.70259927      -6.82848568       4.75391576
H        6.22701998      -9.39481611       7.86365496
H        6.13994523     -11.32559281       9.10870755
H        5.47035519     -13.69718353       9.27393335
H        4.19489783     -13.47171441       5.17396534
C        4.36119231     -15.16219263       7.29455198
C        4.01641166     -16.31675397       7.34505377
Br       3.45893051     -18.18358199       7.42671088
C       -0.00445707       0.01189536      -1.78238275
H       -0.66409135       0.67374010      -2.43557963
H        0.65740317      -0.63156657      -2.45157240
C       -0.90989263      -0.90692880      -0.91072765
C        0.90977584       0.90977584      -0.90977584
C       -0.00465871       1.77757030       0.00794375
H       -0.66225468       2.44313916      -0.64384735
H        0.64322798       2.43503045       0.67728295
C       -1.78241447       0.00034974      -0.00472694
H       -2.45427497      -0.65498947       0.64260836
H       -2.43311707       0.67328779      -0.65473579
C       -0.91132561       0.90220522       0.91563759
C       -0.01476271      -0.02253852       1.78660255
H       -0.67934791      -0.69751639       2.42135241
H        0.63392994       0.61504881       2.47327442
C        0.01484550      -1.77751727      -0.01636693
H        0.67870853      -2.42144646      -0.68295456
H       -0.62264859      -2.45592969       0.64226336
C        1.78714474       0.01002794       0.00389507
H        2.44202412       0.67113390       0.66197326
H        2.45385902      -0.65136977      -0.64189061
C        0.91606151      -0.90478549       0.90901405
