157
Properties=species:S:1:pos:R:3 pbc="F F F"
C        0.00000000       0.00000000       0.00000000
C        0.87759661       0.87759661      -0.87759661
C        0.36789747       2.02320453      -1.46612958
C        1.19674755       2.78656167      -2.28934832
C        2.50952463       2.38332638      -2.49873714
N        3.03210051       1.29099675      -1.89923173
C        2.20383687       0.55690896      -1.11263464
N        3.41610639       3.05810836      -3.32588708
C        3.12266511       4.06141620      -4.22362958
O        1.98973205       4.46094522      -4.48019230
C        4.26588021       4.70482465      -4.94798841
C        3.95124970       5.66186375      -5.92584015
C        4.95332984       6.33583379      -6.62799245
C        6.29188837       6.06325725      -6.35791245
C        6.62689205       5.12385463      -5.37403707
C        5.61217888       4.43670277      -4.67877602
C        8.04523474       4.80066602      -5.03669128
O        8.27932934       3.66349405      -4.64488298
N        8.93508572       5.84839335      -5.16806705
C       10.30579326       5.78458374      -4.87728039
C       11.04784230       6.95477923      -5.03688211
C       12.41269921       6.94523183      -4.74192171
C       12.99707209       5.76913500      -4.29481481
C       12.19449569       4.65006020      -4.16847713
N       10.87144172       4.64188684      -4.45426525
H       -0.66021605       2.33163457      -1.30687160
H        0.79175554       3.68911162      -2.73916142
H        2.65907021      -0.32638797      -0.67276913
H        4.33455453       2.64226641      -3.28528608
H        2.90976227       5.89303964      -6.15236308
H        4.68243234       7.06557773      -7.38714975
H        7.05345778       6.57015025      -6.94303745
H        5.91355956       3.71509599      -3.92663309
H        8.57800456       6.75553935      -5.42223507
H       10.58674973       7.87319850      -5.38458529
H       13.00023993       7.85102072      -4.86049934
H       12.58857492       3.69854750      -3.82374309
C       14.39906377       5.71919256      -3.96996853
C       15.57323179       5.67736576      -3.69790977
Br      17.47176218       5.60973536      -3.25801377
C       -0.87759661      -0.87759661      -0.87759661
C       -2.21559938      -1.06767873      -0.57395347
C       -2.98116059      -1.90454551      -1.38695144
C       -2.38758990      -2.52503196      -2.47896628
N       -1.09441413      -2.31708744      -2.81082742
C       -0.36586972      -1.50898622      -1.99852453
N       -3.05472952      -3.40381682      -3.34155549
C       -4.29462626      -3.97090000      -3.14218463
O       -4.96902255      -3.83771808      -2.12412894
C       -4.85729610      -4.82045151      -4.24094566
C       -6.07861957      -5.46707982      -3.99325422
C       -6.69310862      -6.25281487      -4.97123260
C       -6.09319024      -6.40076105      -6.21910679
C       -4.88280520      -5.75014368      -6.49183487
C       -4.26023253      -4.97031881      -5.49710633
C       -4.20140667      -5.86560019      -7.81558518
O       -2.97853376      -5.78798215      -7.82119045
N       -5.04343730      -6.00728826      -8.90082055
C       -4.62868190      -6.10153083     -10.23744466
C       -5.62374112      -6.20657173     -11.20919080
C       -5.26031861      -6.28430912     -12.55522503
C       -3.91503833      -6.25332559     -12.89265798
C       -2.98919413      -6.15357021     -11.87026869
N       -3.32499696      -6.08163130     -10.56096555
H       -2.67473155      -0.58770109       0.28414252
H       -4.03238915      -2.04032941      -1.14731001
H        0.67482953      -1.39171367      -2.28856723
H       -2.46464980      -3.68852490      -4.10893233
H       -6.56767259      -5.36354673      -3.02394568
H       -7.63419415      -6.75061200      -4.75035366
H       -6.56854192      -7.04760796      -6.95049559
H       -3.32244360      -4.48539875      -5.74744630
H       -6.03847195      -5.96987694      -8.74743008
H       -6.67486919      -6.22816949     -10.94149484
H       -6.02657682      -6.36434691     -13.32083626
H       -1.92123787      -6.12411932     -12.06550832
C       -3.49816513      -6.32071155     -14.26934817
C       -3.14903383      -6.37714730     -15.42232620
Br      -2.58451803      -6.46839912     -17.28659416
C       -0.87759661       0.87759661       0.87759661
C       -0.43865429       1.29547218       2.12310512
C       -1.28541150       2.07550096       2.91174508
C       -2.54406463       2.41543058       2.43209293
N       -2.96987782       2.04930578       1.20314539
C       -2.13424339       1.28048621       0.45865088
N       -3.48144886       3.16828847       3.15036450
C       -3.42457158       3.49546551       4.48767380
O       -2.56123225       3.10179885       5.26783848
C       -4.49865111       4.38657147       5.03347069
C       -4.48408295       4.64070698       6.41416368
C       -5.42711214       5.48528346       7.00476049
C       -6.40131173       6.09399576       6.21775058
C       -6.42267803       5.86657804       4.83552767
C       -5.47788115       5.00268686       4.24708966
C       -7.43794416       6.50140707       3.94324081
O       -7.76884600       5.87611071       2.94274965
N       -7.86193466       7.75638532       4.33322614
C       -8.78273960       8.55071255       3.63420524
C       -9.06868199       9.81039165       4.16043001
C       -9.96528843      10.64479810       3.48976622
C      -10.54915534      10.19891154       2.31295502
C      -10.21825314       8.93494934       1.85983054
N       -9.35461808       8.11267131       2.50030442
H        0.54212242       1.02204321       2.49836934
H       -0.92935866       2.40727834       3.88339157
H       -2.52840856       0.98791015      -0.51086735
H       -4.30245739       3.36270074       2.59694890
H       -3.72894114       4.17659686       7.04962701
H       -5.39946275       5.65775397       8.07794310
H       -7.14790154       6.71524983       6.70349410
H       -5.53032648       4.85094769       3.17401447
H       -7.43432918       8.18064999       5.14079981
H       -8.60827257      10.15644711       5.07981384
H      -10.19407660      11.62864608       3.88903732
H      -10.63909307       8.52567153       0.94610091
C      -11.47105109      11.03200201       1.58517175
C      -12.24313878      11.72971528       0.97565326
Br     -13.49153928      12.85785863      -0.00988659
C        0.87759661      -0.87759661       0.87759661
C        2.09674033      -0.41534976       1.34514149
C        2.88736996      -1.26179865       2.12348893
C        2.43592841      -2.54346846       2.41219128
N        1.23143445      -2.99366525       1.99722930
C        0.48491901      -2.15738211       1.23107935
N        3.15975291      -3.48169711       3.15865181
C        4.48468825      -3.39580047       3.52722216
O        5.24977394      -2.49875933       3.18233630
C        5.03626208      -4.47975515       4.40267604
C        6.40793218      -4.43268398       4.69833744
C        7.00169675      -5.38300792       5.53245142
C        6.22684074      -6.39744799       6.08876934
C        4.85306912      -6.45215550       5.81955913
C        4.26196984      -5.49942458       4.96626324
C        3.97349799      -7.51146728       6.39762677
O        3.00195218      -7.85243964       5.73331454
N        4.33936504      -7.96131719       7.65086389
C        3.64542953      -8.92540760       8.39682026
C        4.14314909      -9.23351124       9.66284331
C        3.47565708     -10.17379974      10.45039593
C        2.33030240     -10.77801038       9.95270913
C        1.90439833     -10.42273362       8.68590107
N        2.54236109      -9.51662811       7.90860462
H        2.45026914       0.58366175       1.11168273
H        3.83787288      -0.88775045       2.49440525
H       -0.46345596      -2.57062091       0.89828642
H        2.62574215      -4.32389151       3.31247337
H        7.03372783      -3.64584274       4.27559443
H        8.06810575      -5.32935873       5.73769533
H        6.71645349      -7.14786654       6.70232545
H        3.19580786      -5.57846549       4.78101529
H        5.12110879      -7.52331459       8.11135560
H        5.03789656      -8.75714337      10.04949360
H        3.85283831     -10.42023255      11.43868914
H        1.01595302     -10.85750993       8.23740255
C        1.60653578     -11.74518663      10.73650245
C        1.00038123     -12.55519674      11.39292935
Br       0.02028059     -13.86491459      12.45431614
