149
Properties=species:S:1:pos:R:3 pbc="F F F"
C        0.00000000       0.00000000       0.00000000
C        0.87759661       0.87759661      -0.87759661
C        0.36789747       2.02320453      -1.46612958
C        1.19674755       2.78656167      -2.28934832
C        2.50952463       2.38332638      -2.49873714
N        3.03210051       1.29099675      -1.89923173
C        2.20383687       0.55690896      -1.11263464
N        3.41610639       3.05810836      -3.32588708
C        3.12266511       4.06141620      -4.22362958
O        1.98973205       4.46094522      -4.48019230
C        4.26588021       4.70482465      -4.94798841
C        3.95124970       5.66186375      -5.92584015
C        4.95332984       6.33583379      -6.62799245
C        6.29188837       6.06325725      -6.35791245
C        6.62689205       5.12385463      -5.37403707
C        5.61217888       4.43670277      -4.67877602
C        8.04523474       4.80066602      -5.03669128
O        8.27932934       3.66349405      -4.64488298
N        8.93508572       5.84839335      -5.16806705
C       10.30579326       5.78458374      -4.87728039
C       11.04784230       6.95477923      -5.03688211
C       12.41269921       6.94523183      -4.74192171
C       12.99707209       5.76913500      -4.29481481
Br      14.83045686       5.70382525      -3.87001327
C       12.19449569       4.65006020      -4.16847713
N       10.87144172       4.64188684      -4.45426525
H       -0.66021605       2.33163457      -1.30687160
H        0.79175554       3.68911162      -2.73916142
H        2.65907021      -0.32638797      -0.67276913
H        4.33455453       2.64226641      -3.28528608
H        2.90976227       5.89303964      -6.15236308
H        4.68243234       7.06557773      -7.38714975
H        7.05345778       6.57015025      -6.94303745
H        5.91355956       3.71509599      -3.92663309
H        8.57800456       6.75553935      -5.42223507
H       10.58674973       7.87319850      -5.38458529
H       13.00023993       7.85102072      -4.86049934
H       12.58857492       3.69854750      -3.82374309
C       -0.87759661      -0.87759661      -0.87759661
C       -2.18431528      -1.15870291      -0.51421339
C       -2.94874637      -1.99282449      -1.33108667
C       -2.38540831      -2.51974369      -2.48643615
N       -1.12592444      -2.22184989      -2.87455466
C       -0.39690339      -1.41845610      -2.05802099
N       -3.05227334      -3.38746541      -3.36036308
C       -4.24694912      -4.03334577      -3.12741600
O       -4.86904477      -3.99287186      -2.06895294
C       -4.82452775      -4.85343794      -4.24072758
C       -5.99372038      -5.58015429      -3.96507894
C       -6.61955934      -6.34598498      -4.95161176
C       -6.08388066      -6.39311752      -6.23605989
C       -4.92721716      -5.66170513      -6.53586145
C       -4.29205978      -4.90220469      -5.53339320
C       -4.31631284      -5.66780712      -7.89847208
O       -3.10158272      -5.52121077      -7.96491287
N       -5.20940432      -5.79863443      -8.94350736
C       -4.86619624      -5.79792607     -10.30353508
C       -5.90741411      -5.90689380     -11.22519573
C       -5.61679481      -5.89212089     -12.59093705
C       -4.29623865      -5.76742108     -12.99736217
Br      -3.84949017      -5.72852953     -14.82627569
C       -3.32089125      -5.67032470     -12.02181707
N       -3.58573480      -5.68736295     -10.69449606
H       -2.61930775      -0.75181589       0.39283351
H       -3.97605835      -2.20022175      -1.04374847
H        0.61805810      -1.22741941      -2.39609006
H       -2.49203118      -3.59713108      -4.17294476
H       -6.43219720      -5.55619493      -2.96677286
H       -7.51880838      -6.90709629      -4.70925514
H       -6.56451363      -7.02579069      -6.97634114
H       -3.39707079      -4.35254598      -5.80567186
H       -6.19479038      -5.82559139      -8.73539721
H       -6.93913548      -6.00193990     -10.90345814
H       -6.41961869      -5.97426208     -13.31787922
H       -2.26872814      -5.57036554     -12.27177182
C       -0.87759661       0.87759661       0.87759661
C       -0.39681804       1.38848643       2.07192711
C       -1.24290856       2.16541972       2.86432926
C       -2.54277608       2.40946685       2.43934521
N       -3.01251426       1.95181499       1.25799974
C       -2.17577757       1.18796552       0.50963738
N       -3.48145367       3.15044902       3.16819914
C       -3.37149072       3.55560669       4.48061348
O       -2.44653432       3.25381384       5.23052141
C       -4.46355923       4.41727893       5.03785511
C       -4.38929859       4.74980895       6.39984607
C       -5.34566944       5.57467712       6.99680953
C       -6.39372397       6.08451412       6.23481999
C       -6.47636104       5.77816812       4.87025458
C       -5.51701534       4.93426186       4.27638047
C       -7.57249435       6.30585887       4.00423882
O       -7.92062513       5.60789728       3.05918395
N       -8.04549114       7.55636438       4.34969060
C       -9.04612627       8.25911226       3.66241886
C       -9.37444587       9.52945471       4.13560307
C      -10.35170881      10.27506905       3.47307490
C      -10.97168813       9.73236943       2.35696435
Br     -12.28653935      10.69967650       1.41807954
C      -10.59437640       8.46432235       1.95433427
N       -9.65229427       7.72731419       2.58798535
H        0.61664020       1.18988337       2.40504695
H       -0.85458849       2.57047360       3.79496648
H       -2.60420474       0.82006663      -0.41881999
H       -4.34071590       3.26874465       2.65264648
H       -3.57598209       4.36376069       7.01542223
H       -5.27024934       5.80903561       8.05587486
H       -7.14720948       6.69134195       6.72809404
H       -5.61832678       4.71924544       3.21771642
H       -7.59990170       8.04815086       5.10772642
H       -8.88570647       9.95138140       5.00744565
H      -10.61420809      11.26628644       3.83126547
H      -11.03977417       7.98181325       1.08927808
C        0.87759661      -0.87759661       0.87759661
C        2.10209973      -0.41975925       1.33537260
C        2.89233455      -1.26627739       2.11404560
C        2.43516734      -2.54360230       2.41281851
N        1.22568957      -2.98917081       2.00746862
C        0.47957964      -2.15300441       1.24079643
N        3.15788200      -3.48169263       3.16052720
C        4.48541706      -3.40138223       3.52091160
O        5.25366302      -2.51082540       3.16638114
C        5.03579432      -4.48344324       4.39945571
C        6.40941300      -4.44265148       4.68688912
C        7.00251266      -5.39157145       5.52307198
C        6.22504842      -6.39824186       6.08976780
C        4.84943814      -6.44650426       5.82884134
C        4.25890588      -5.49530402       4.97344777
C        3.96712913      -7.49730894       6.41815397
O        2.98977173      -7.83645772       5.76147691
N        4.33767881      -7.94201695       7.67185036
C        3.64252859      -8.89771250       8.42741630
C        4.14582172      -9.20137302       9.69230890
C        3.47749425     -10.13318061      10.48917790
C        2.32577994     -10.73358135      10.00166062
Br       1.37798788     -11.98686603      11.03944148
C        1.89456850     -10.38317218       8.73529234
N        2.53322949      -9.48531502       7.94904930
H        2.46004232       0.57580717       1.09405497
H        3.84713226      -0.89563047       2.47726585
H       -0.47309510      -2.56263222       0.91591425
H        2.61990784      -4.31985712       3.32234208
H        7.03728190      -3.66193035       4.25595275
H        8.07039196      -5.34294735       5.72182051
H        6.71387273      -7.14793380       6.70483894
H        3.19124302      -5.56920461       4.79484100
H        5.12461522      -7.50591598       8.12524778
H        5.04555009      -8.72799397      10.07098946
H        3.85899247     -10.37607866      11.47668887
H        1.00102268     -10.81535596       8.29448686
