133
Properties=species:S:1:pos:R:3 pbc="F F F"
C        0.00000000       0.00000000       0.00000000
N        3.02778209       5.02245884       0.61939685
C        3.80760291       4.25524895       0.26149671
C        4.76018201       3.31807456      -0.17569114
C        4.39055668       2.23793626      -0.89734670
C        3.00858196       1.94851738      -1.30838008
C        2.20214197       1.13442041      -0.50554174
C        0.88215561       0.88215561      -0.88215561
C        0.35678557       1.42984845      -2.05281534
C        1.15575919       2.24219217      -2.85870861
C        2.47333867       2.49940352      -2.48237719
O        3.26276277       3.30578978      -3.25536722
C        6.23284147       3.48794170       0.04890202
O        7.02746338       2.84193256      -0.63136730
N        6.58533174       4.35807838       1.06401251
C        7.90219920       4.72021667       1.43879437
C        9.04866079       4.36079722       0.72195103
C       10.31798033       4.76769141       1.14849001
C       10.44788298       5.53730072       2.29922454
C        9.31868677       5.90579954       3.02525146
C        8.05033423       5.50115001       2.59256656
H        5.12442965       1.52771696      -1.27427730
H        2.59804157       0.70297061       0.41037878
H       -0.67253769       1.23314351      -2.34264994
H        0.73499442       2.66640493      -3.76540732
H        2.75351887       3.60717148      -4.02603521
H        5.85022134       4.75808094       1.63521487
H        8.99769418       3.77280761      -0.18893133
H       11.19145868       4.47816723       0.56910587
H        9.41273048       6.50580100       3.92609546
H        7.18522457       5.80092339       3.17879511
C       11.75388192       5.95731959       2.73688985
C       12.84765603       6.30908539       3.10343455
Br      14.61619626       6.87786093       3.69610633
N       -2.00279711       0.11733364      -5.54538062
C       -1.45490286      -0.89091444      -5.45553785
C       -0.78563039      -2.12252564      -5.34579169
C       -0.64537418      -2.73183048      -4.14863498
C       -1.17734169      -2.20536723      -2.88277050
C       -0.36804580      -1.40392778      -2.07013054
C       -0.88215561      -0.88215561      -0.88215561
C       -2.19414206      -1.15283232      -0.49247498
C       -3.00672782      -1.95205802      -1.29787413
C       -2.49696865      -2.47080264      -2.48734809
O       -3.28719777      -3.24339834      -3.29332366
C       -0.26388675      -2.87484084      -6.53315356
O       -0.00400517      -4.07163227      -6.42512580
N       -0.07539214      -2.12471824      -7.67928723
C        0.36175299      -2.60909549      -8.93627900
C        0.52004554      -3.96503994      -9.24251258
C        0.94470775      -4.36825546     -10.51363402
C        1.21598391      -3.41402832     -11.48791475
C        1.06326504      -2.06008743     -11.20241246
C        0.63338495      -1.66093564      -9.93136700
H       -0.16397606      -3.70403116      -4.05841668
H        0.65539899      -1.18323753      -2.36279486
H       -2.59253842      -0.74333424       0.43261690
H       -4.02751230      -2.15264996      -0.98664442
H       -4.16508736      -3.33461376      -2.88702443
H       -0.21935049      -1.12292610      -7.63081084
H        0.30816594      -4.74717367      -8.52042539
H        1.05427978      -5.42916220     -10.72563763
H        1.27477086      -1.30890921     -11.95829768
H        0.52409951      -0.59742407      -9.73402829
C        1.65120484      -3.82925592     -12.79626057
C        2.01570236      -4.17700903     -13.89200020
Br       2.60506404      -4.73929641     -15.66371850
N       -3.19699213       4.90912043      -0.67526848
C       -3.94202508       4.13041355      -0.27108348
C       -4.85210956       3.17919517       0.22264299
C       -4.42837825       2.13307234       0.96438904
C       -3.02661270       1.89748963       1.34137709
C       -2.21983170       1.08350975       0.53876267
C       -0.88215561       0.88215561       0.88215561
C       -0.33927610       1.48073681       2.01943645
C       -1.13845324       2.29327999       2.82492673
C       -2.47386752       2.49965624       2.48159562
O       -3.26429793       3.30552456       3.25409728
C       -6.33528988       3.29834517       0.03824609
O       -7.08925172       2.65014752       0.76136401
N       -6.74418711       4.12619194      -0.99098144
C       -8.08205260       4.43746835      -1.33589944
C       -9.19521303       4.06627914      -0.57398519
C      -10.48847804       4.42209892      -0.97339523
C      -10.67593985       5.15196673      -2.14194741
C       -9.58057924       5.53143395      -2.91277834
C       -8.28816664       5.17801604      -2.50726500
H       -5.12868314       1.41324954       1.38449123
H       -2.62935462       0.61269718      -0.35141840
H        0.70372708       1.32361425       2.28336860
H       -0.70414006       2.75731787       3.70534874
H       -2.74186605       3.64530849       3.99955101
H       -6.03892402       4.53017580      -1.59601240
H       -9.09928595       3.50818957       0.35195761
H      -11.33511899       4.12463780      -0.35923675
H       -9.71961378       6.10055329      -3.82773104
H       -7.45040326       5.48525945      -3.12830986
C      -12.00658242       5.51947072      -2.55174148
C      -13.12099557       5.82725531      -2.89494401
Br     -14.92290738       6.32491696      -3.44987347
N        2.81226602       0.53691351       5.15549157
C        2.13032822      -0.38043785       5.29058908
C        1.29731674      -1.50101545       5.45561554
C        0.90029795      -2.23315515       4.39238653
C        1.29983560      -1.96235963       3.00328419
C        0.48901197      -1.16119902       2.19189313
C        0.88215561      -0.88215561       0.88215561
C        2.07394663      -1.39561528       0.36988745
C        2.88719365      -2.19604576       1.17342056
C        2.49893391      -2.47258126       2.48360421
O        3.29383176      -3.24347635       3.28661167
C        0.86653211      -2.00491747       6.80043157
O        0.43951450      -3.15273850       6.90851025
N        0.95207188      -1.09197555       7.83535018
C        0.64961217      -1.33695031       9.19705903
C        0.36371548      -2.60199263       9.72179887
C        0.08619970      -2.76746583      11.08351619
C        0.09138084      -1.66446532      11.93011301
C        0.37467302      -0.39784411      11.42671772
C        0.65678364      -0.23712836      10.06500569
H        0.28816976      -3.12523373       4.51302041
H       -0.44112932      -0.75278718       2.57897553
H        2.37859969      -1.17490410      -0.65024803
H        3.81455609      -2.58678280       0.76546778
H        4.08112282      -3.51792830       2.78767444
H        1.21651016      -0.13822116       7.61835610
H        0.36071255      -3.49451810       9.10420247
H       -0.12764897      -3.76299696      11.46517205
H        0.37908967       0.46869739      12.08204375
H        0.87289741       0.76291117       9.69736661
C       -0.19244872      -1.83526675      13.33149363
C       -0.43015598      -1.97831294      14.50514990
Br      -0.81450851      -2.20960655      16.40285283
