145
Properties=species:S:1:pos:R:3 pbc="F F F"
C        0.00000000       0.00000000       0.00000000
N        1.16724791       5.54295756      -0.11542549
C        0.79945130       5.34976118      -1.18884286
C        0.35017456       5.11376488      -2.50006067
C        0.49121344       3.90085528      -3.07593351
C        1.12132700       2.75259051      -2.39974213
C        0.31250913       1.92997461      -1.60077430
C        0.88165050       0.88165050      -0.88165050
C        2.25129775       0.64303775      -0.94767057
C        3.06079387       1.45132318      -1.75146515
C        2.50275360       2.50038155      -2.49154197
O        3.23143771       3.35122049      -3.28368049
C        4.45223549       2.82844742      -3.79821632
C       -0.44810833       6.12823237      -3.24714617
O       -1.28588761       5.75864452      -4.06766857
N       -0.13109147       7.44128533      -2.96708184
C       -0.77798102       8.58518435      -3.49690256
C       -2.06020097       8.53321506      -4.05895525
C       -2.66044800       9.68106404      -4.58067728
C       -1.98766894      10.89859980      -4.55170861
C       -0.71943615      10.97546022      -3.97939251
C       -0.12434121       9.82835865      -3.44200346
H        0.11076455       3.69514230      -4.07416880
H       -0.75629755       2.11898627      -1.52751183
H        2.70134520      -0.16097498      -0.37046588
H        4.12804513       1.25321119      -1.75895951
H        4.30024954       1.85246966      -4.27249545
H        5.21615294       2.77183815      -3.01637240
H        4.81389248       3.51942134      -4.56564508
H        0.71724623       7.63855855      -2.44459152
H       -2.63187805       7.60892924      -4.08431913
H       -3.65863083       9.61861439      -5.01020920
H       -2.45297337      11.78745391      -4.97176483
H       -0.20067436      11.93021182      -3.96210828
C        1.19017690       9.95943817      -2.86888891
C        2.29108582      10.06921726      -2.38890547
Br       4.07116243      10.24672078      -1.61281284
N        1.04357135      -4.09105494      -3.77814737
C        0.40446129      -3.35379158      -4.38872505
C       -0.37623458      -2.45319795      -5.13456757
C       -1.28211162      -1.65369237      -4.53219824
C       -1.53058913      -1.66378210      -3.07928840
C       -0.73356662      -0.84360315      -2.26608827
C       -0.88165050      -0.88165050      -0.88165050
C       -1.81588035      -1.73066458      -0.29546114
C       -2.62156351      -2.54131587      -1.10070283
C       -2.49525285      -2.50503027      -2.49439400
O       -3.23075130      -3.28491484      -3.35067256
C       -4.50155194      -3.70953250      -2.86781480
C       -0.12483664      -2.21684173      -6.58559184
O       -0.35802447      -1.11148604      -7.07091497
N        0.32547099      -3.31662690      -7.28611979
C        0.69047959      -3.33955217      -8.65503331
C        1.01419386      -2.17796175      -9.36820145
C        1.35898560      -2.24030855     -10.71997037
C        1.38289985      -3.46417610     -11.38136321
C        1.08316613      -4.63347385     -10.68510886
C        0.75322393      -4.57289855      -9.32634627
H       -1.86235546      -0.92435166      -5.09336853
H        0.01243684      -0.18985633      -2.71278106
H       -1.91848094      -1.77825993       0.78590478
H       -3.32107244      -3.21010682      -0.60903658
H       -5.08204892      -2.86661634      -2.47654940
H       -4.39307999      -4.49647215      -2.11481134
H       -5.05487648      -4.13229302      -3.71178941
H        0.27590243      -4.23053174      -6.84576698
H        1.02946789      -1.20276788      -8.88807033
H        1.60970031      -1.32569792     -11.25419514
H        1.63833291      -3.50682888     -12.43774940
H        1.10310043      -5.58490564     -11.20984053
C        0.44457005      -5.80859014      -8.65448388
C        0.18607242      -6.84348185      -8.09179913
Br      -0.23189637      -8.51681421      -7.18198547
N       -5.58497301       0.35705189       0.88360606
C       -5.31675517       1.43591569       0.58538448
C       -4.98911747       2.75378652       0.22109612
C       -3.75755132       3.25458507       0.45586584
C       -2.68186769       2.48509552       1.10669643
C       -1.85878146       1.68534729       0.29912930
C       -0.88165050       0.88165050       0.88165050
C       -0.71499927       0.86364310       2.26336371
C       -1.52358296       1.66738778       3.07261147
C       -2.50096804       2.49144430       2.50226478
O       -3.34818014       3.29006569       3.22809286
C       -2.86686052       3.71150462       4.50053409
C       -5.91854422       3.59536868      -0.58664270
O       -5.46187856       4.43673600      -1.35818907
N       -7.25965611       3.37131698      -0.35369740
C       -8.33764045       3.99547926      -1.02901383
C       -8.18682110       4.61941363      -2.27426539
C       -9.27170691       5.23330359      -2.90371718
C      -10.52399046       5.23603078      -2.29738178
C      -10.69939843       4.60394289      -1.06792474
C       -9.61578709       3.97473741      -0.44450360
H       -3.48005002       4.25845105       0.14157458
H       -1.99275427       1.67787055      -0.78042426
H        0.03234558       0.22094732       2.72223435
H       -1.38385170       1.60886652       4.14749762
H       -1.86082807       4.13907189       4.42531470
H       -2.89250594       2.88928109       5.22257645
H       -3.53591987       4.49574668       4.86729235
H       -7.52965863       2.81719476       0.45354291
H       -7.23265858       4.62385756      -2.79514582
H       -9.13278110       5.70983236      -3.87242071
H      -11.36323102       5.72743877      -2.78442443
H      -11.68063674       4.61195371      -0.60094470
C       -9.84782649       3.34241695       0.82826054
C      -10.04215949       2.81284856       1.89420050
Br     -10.35637952       1.95658126       3.61773527
N        2.20152670       0.56564481       5.18974907
C        3.13502610       0.34912799       4.55215723
C        4.27532911       0.08464493       3.77331593
C        4.18925626      -0.64078048       2.63796549
C        2.92609379      -1.21130718       2.13625866
C        2.11956482      -0.41083212       1.31286111
C        0.88165050      -0.88165050       0.88165050
C        0.43524714      -2.14353588       1.26322305
C        1.23936617      -2.95087127       2.07334477
C        2.49218378      -2.49850217       2.50399117
O        3.32859388      -3.21970337       3.31804144
C        3.18121240      -4.63518222       3.26250462
C        5.58856012       0.72798667       4.06669675
O        6.36585192       0.97098500       3.14555856
N        5.83716434       0.96300142       5.40311278
C        6.97892248       1.61100125       5.93618466
C        7.80551085       2.43759418       5.16405267
C        8.92859715       3.05068334       5.72337952
C        9.24522082       2.84512448       7.06254312
C        8.42493772       2.04215747       7.85263633
C        7.29036566       1.44056463       7.29621986
H        5.05704152      -0.81705635       2.00597779
H        2.45068232       0.58427733       1.02379556
H       -0.53991103      -2.50482594       0.94592118
H        0.84881778      -3.91832348       2.37307458
H        3.19823110      -4.99817217       2.22881140
H        2.27043491      -4.95612122       3.77780736
H        4.03267937      -5.08007219       3.78620734
H        5.23408170       0.52973466       6.09604925
H        7.58569276       2.64392867       4.11960623
H        9.55558130       3.69132029       5.10593174
H       10.12868055       3.31322647       7.49079129
H        8.68039418       1.88605572       8.89730729
C        6.47986372       0.61435818       8.15299843
C        5.80106835      -0.07758973       8.87055047
Br       4.70351364      -1.19641097      10.03077144
