137
Properties=species:S:1:pos:R:3 pbc="F F F"
C        0.00000000       0.00000000       0.00000000
N        1.16724791       5.54295756      -0.11542549
C        0.79945130       5.34976118      -1.18884286
C        0.35017456       5.11376488      -2.50006067
C        0.49121344       3.90085528      -3.07593351
C        1.12132700       2.75259051      -2.39974213
C        0.31250913       1.92997461      -1.60077430
C        0.88165050       0.88165050      -0.88165050
C        2.25129775       0.64303775      -0.94767057
C        3.06079387       1.45132318      -1.75146515
C        2.50275360       2.50038155      -2.49154197
O        3.23143771       3.35122049      -3.28368049
C        4.45223549       2.82844742      -3.79821632
C       -0.44810833       6.12823237      -3.24714617
O       -1.28588761       5.75864452      -4.06766857
N       -0.13109147       7.44128533      -2.96708184
C       -0.77798102       8.58518435      -3.49690256
C       -2.06020097       8.53321506      -4.05895525
C       -2.66044800       9.68106404      -4.58067728
C       -1.98766894      10.89859980      -4.55170861
C       -0.71943615      10.97546022      -3.97939251
C       -0.12434121       9.82835865      -3.44200346
Br       1.61150447      10.00145160      -2.68519501
H        0.11076455       3.69514230      -4.07416880
H       -0.75629755       2.11898627      -1.52751183
H        2.70134520      -0.16097498      -0.37046588
H        4.12804513       1.25321119      -1.75895951
H        4.30024954       1.85246966      -4.27249545
H        5.21615294       2.77183815      -3.01637240
H        4.81389248       3.51942134      -4.56564508
H        0.71724623       7.63855855      -2.44459152
H       -2.63187805       7.60892924      -4.08431913
H       -3.65863083       9.61861439      -5.01020920
H       -2.45297337      11.78745391      -4.97176483
H       -0.20067436      11.93021182      -3.96210828
N       -4.93908757       0.77807374      -2.66461713
C       -5.15067066      -0.15809619      -2.02928849
C       -5.40912699      -1.30166134      -1.25321177
C       -4.41469585      -2.14651210      -0.90679427
C       -3.01051703      -1.95221784      -1.31092476
C       -2.19169449      -1.15561999      -0.49594356
C       -0.88165050      -0.88165050      -0.88165050
C       -0.37624526      -1.39184586      -2.07391495
C       -1.18296498      -2.19629814      -2.88431910
C       -2.49730209      -2.49283336      -2.50454167
O       -3.35812207      -3.25367063      -3.25454599
C       -2.75055822      -4.20132130      -4.12701972
C       -6.74628133      -1.54288983      -0.63809904
O       -6.82413534      -2.14651075       0.43022060
N       -7.81845690      -1.08393833      -1.37488046
C       -9.17994651      -1.13800043      -0.98615895
C       -9.57699473      -1.30225657       0.34728196
C      -10.92952976      -1.36139020       0.68962664
C      -11.90683457      -1.26028338      -0.29552151
C      -11.53309115      -1.07692986      -1.62539557
C      -10.17785895      -1.00154768      -1.96661427
Br      -9.73722506      -0.76031862      -3.80060739
H       -4.59567203      -3.01175318      -0.27265045
H       -2.58241834      -0.73661393       0.42883171
H        0.63890571      -1.16172740      -2.38801439
H       -0.76508996      -2.55559938      -3.81952649
H       -2.01211196      -4.81452517      -3.59857753
H       -2.30318328      -3.70641662      -4.99476358
H       -3.53630698      -4.86828829      -4.49436363
H       -7.66394012      -0.79901106      -2.33744511
H       -8.84950129      -1.36453129       1.15266226
H      -11.21582019      -1.48664729       1.73227472
H      -12.95894127      -1.32088486      -0.02641925
H      -12.30297615      -1.00015785      -2.38851174
N       -0.53084252       0.69727231       5.59751612
C       -1.60900820       0.44868868       5.28035847
C       -2.92602624       0.14503486       4.89293901
C       -3.37248697       0.44166944       3.65384582
C       -2.54128774       1.10151358       2.63085832
C       -1.74095786       0.29478542       1.80751476
C       -0.88165050       0.88165050       0.88165050
C       -0.80846581       2.26680960       0.76673067
C       -1.61219324       3.07587832       1.57551065
C       -2.49141073       2.50191242       2.50135397
O       -3.29440609       3.22611034       3.34582226
C       -3.65238680       4.52949457       2.89701786
C       -3.82941045      -0.66366408       5.76152383
O       -4.68025989      -1.38700549       5.24717109
N       -3.64675902      -0.48689631       7.11741298
C       -4.33377545      -1.17662679       8.14695723
C       -4.99555901      -2.39191961       7.92832995
C       -5.67094202      -3.03646880       8.96682011
C       -5.69824282      -2.47529559      10.23969224
C       -5.02978262      -1.27694996      10.48258392
C       -4.33936522      -0.63903270       9.44568838
Br      -3.45706705       0.99785115       9.84323287
H       -4.37598184       0.17460545       3.32948836
H       -1.77675884      -0.78838750       1.90182921
H       -0.12280010       2.72795420       0.06008179
H       -1.51043439       4.15216442       1.47761704
H       -4.04502390       4.50584079       1.87434997
H       -2.80654410       5.21940724       2.97841214
H       -4.44721283       4.90088955       3.55085652
H       -3.07463832       0.28929692       7.43646106
H       -4.98336203      -2.87807202       6.95608031
H       -6.17613060      -3.98142537       8.77548752
H       -6.23720274      -2.97340887      11.04245151
H       -5.05732896      -0.84513028      11.47944706
N        2.61211591      -4.97033616      -0.75682111
C        1.98353677      -5.16749640       0.18702217
C        1.21570482      -5.40833470       1.33996059
C        0.88618466      -4.40307897       2.17873861
C        1.30131393      -3.00451742       1.96782829
C        0.48653724      -2.18552732       1.17119348
C        0.88165050      -0.88165050       0.88165050
C        2.08313242      -0.38261710       1.37625656
C        2.89351535      -1.18939148       2.18067538
C        2.50449987      -2.49740963       2.49276762
O        3.25359202      -3.35812135       3.25462532
C        4.14027493      -2.74999553       4.18862878
C        0.59065572      -6.73750425       1.59911023
O       -0.47272166      -6.79999294       2.21315421
N        1.31335362      -7.82057151       1.14335057
C        0.91272943      -9.17787010       1.21350636
C       -0.42271136      -9.56109508       1.39358562
C       -0.77683411     -10.90982098       1.46830645
C        0.19837411     -11.89704657       1.36721878
C        1.52985951     -11.53726596       1.16829111
C        1.88273125     -10.18598113       1.07730851
Br       3.71837073      -9.76449049       0.81528985
H        0.25841603      -4.57029354       3.05136609
H       -0.44559024      -2.57152154       0.76426925
H        2.40435528       0.62745196       1.13393278
H        3.83577176      -0.77688977       2.52755432
H        3.62427266      -2.00114098       4.79980103
H        5.00747003      -2.31517556       3.68171790
H        4.50655929      -3.53297280       4.85942681
H        2.27462231      -7.67754136       0.84823263
H       -1.22080615      -8.82567131       1.45650515
H       -1.82085451     -11.18533377       1.60571349
H       -0.07975523     -12.94603107       1.43996953
H        2.28517297     -12.31482059       1.09165218
