129
Properties=species:S:1:pos:R:3 pbc="F F F"
C        0.00000000       0.00000000       0.00000000
C        0.88285547       0.88285547      -0.88285547
C        0.40832193       2.11062636      -1.32663140
C        1.22449666       2.91798659      -2.12455650
C        2.53312715       2.53409104      -2.47925269
C        2.96479987       1.27445857      -2.03230971
C        2.15654263       0.45523307      -1.23732783
N        3.38323746       3.27258265      -3.24085202
C        3.21699641       4.58340967      -3.25218733
S        3.50657010       5.49551109      -1.80719956
C        3.25255733       7.04500405      -2.66049235
C        3.02111265       6.72957361      -4.12022248
O        2.77550031       7.65462343      -4.90272039
N        3.06413070       5.35849081      -4.38944141
C        2.91901741       4.86266916      -5.74086835
C        3.26147843       5.66229913      -6.84817069
C        3.12543236       5.20689549      -8.16709736
C        2.64700544       3.92620647      -8.40712290
C        2.30253685       3.10611891      -7.34150227
C        2.43560814       3.57622133      -6.02671227
H       -0.58324486       2.45964207      -1.06243162
H        0.83274875       3.87306053      -2.46748984
H        3.96425718       0.93610591      -2.29853382
H        2.54062974      -0.50230483      -0.90262691
H        2.37132938       7.55045498      -2.25805353
H        4.13375724       7.68328546      -2.56072866
H        3.67908746       6.65543833      -6.71151322
H        3.40563646       5.86252270      -8.98573963
H        1.92767903       2.10011625      -7.50343227
H        2.12263622       2.91066843      -5.22765209
C        2.50975329       3.45147526      -9.75967313
C        2.39480461       3.05388787     -10.89243395
Br       2.20894232       2.41102269     -12.72401238
C       -0.88285547      -0.88285547      -0.88285547
C       -2.16791747      -0.46850701      -1.20915523
C       -2.96620801      -1.27515391      -2.02567783
C       -2.49876100      -2.49601247      -2.55169741
C       -1.20415554      -2.89094560      -2.17646703
C       -0.39703797      -2.09540791      -1.35665764
N       -3.21509909      -3.32285021      -3.35872284
C       -4.17306845      -2.78592748      -4.09359748
S       -3.76013887      -1.68353844      -5.36560343
C       -5.45770588      -1.58507942      -5.91526843
C       -6.26835632      -2.53659773      -5.06595468
O       -7.49063645      -2.60322980      -5.23897788
N       -5.49266801      -3.20508564      -4.11430927
C       -6.08095693      -4.19884496      -3.24275302
C       -7.23287482      -4.91138915      -3.62768428
C       -7.82461850      -5.87538531      -2.79942141
C       -7.26536016      -6.15483094      -1.56014372
C       -6.12723716      -5.47626188      -1.14665899
C       -5.54921213      -4.50826129      -1.98106832
H       -2.56477366       0.47280273      -0.84685790
H       -3.97189933      -0.93658023      -2.26481955
H       -0.81326969      -3.83521609      -2.55041113
H        0.60243257      -2.43544421      -1.10794019
H       -5.83477899      -0.56898887      -5.77607002
H       -5.53526787      -1.87723610      -6.96526740
H       -7.68320765      -4.75877285      -4.60405852
H       -8.71126358      -6.39827677      -3.14435844
H       -5.67031031      -5.67821553      -0.18270171
H       -4.67943260      -3.98074658      -1.60077756
C       -7.86616483      -7.14744358      -0.70729327
C       -8.36933874      -7.97875667       0.00696898
Br      -9.18292840      -9.32291962       1.16187063
C       -0.88285547       0.88285547       0.88285547
C       -0.63773196       2.24796413       0.95988361
C       -1.45528185       3.05141199       1.76034591
C       -2.54358819       2.52126523       2.48161746
C       -2.74092111       1.13319107       2.39745598
C       -1.92754056       0.31763349       1.60392948
N       -3.38403095       3.24403876       3.26860243
C       -3.53445636       4.52713702       2.99100003
S       -4.30115302       4.99832097       1.50980676
C       -4.26466143       6.72519976       1.96819254
C       -3.69208841       6.81492566       3.36389468
O       -3.52891419       7.92850299       3.87542695
N       -3.35668777       5.56437874       3.89099642
C       -2.84414054       5.44015566       5.23825871
C       -3.14978585       6.39960254       6.22255986
C       -2.66163788       6.30445409       7.53333325
C       -1.85644068       5.23213881       7.89175531
C       -1.53611314       4.26347095       6.95057394
C       -2.02412823       4.37416936       5.64024416
H        0.17396761       2.70612842       0.40666802
H       -1.24349207       4.11707454       1.81273250
H       -3.56228306       0.68416711       2.95244674
H       -2.12988373      -0.74696856       1.55803666
H       -3.62144823       7.27865104       1.27973862
H       -5.27455018       7.14226284       1.96095835
H       -3.80919541       7.23403924       6.00280437
H       -2.92863510       7.07005627       8.25520743
H       -0.90958148       3.41465460       7.20699147
H       -1.71983902       3.60997979       4.93113792
C       -1.35617260       5.12678216       9.23794691
C       -0.93719808       5.03854596      10.36538238
Br      -0.25975172       4.89587550      12.18835017
C        0.88285547      -0.88285547       0.88285547
C        2.18053779      -0.48575447       1.17928744
C        2.97900621      -1.29208081       1.99595273
C        2.49974856      -2.49509009       2.55163223
C        1.19199582      -2.87346574       2.20610660
C        0.38445102      -2.07814581       1.38650669
N        3.21576920      -3.32031198       3.36059096
C        4.19585015      -2.78774303       4.06900022
S        3.82485279      -1.65618151       5.32824644
C        5.53336789      -1.57829856       5.84638728
C        6.31209703      -2.55872372       5.00008799
O        7.53590774      -2.64401313       5.15292325
N        5.50809842      -3.22983318       4.07413132
C        6.06340339      -4.24892726       3.21022427
C        7.20937006      -4.97498407       3.58759411
C        7.76941627      -5.96363047       2.76637848
C        7.18346017      -6.25467620       1.54219843
C        6.05018475      -5.56332684       1.13664643
C        5.50403189      -4.57081357       1.96369629
H        2.58725712       0.44190093       0.79347264
H        3.99453576      -0.96729235       2.21147100
H        0.79140008      -3.80398382       2.60351301
H       -0.62505516      -2.40467387       1.16133312
H        5.92557450      -0.57164341       5.68261997
H        5.62444809      -1.85342907       6.89989420
H        7.67955587      -4.81338010       4.55310305
H        8.65279000      -6.49608219       3.10502660
H        5.57276692      -5.77391929       0.18454134
H        4.63697159      -4.03465598       1.58932917
C        7.75162905      -7.27251987       0.69675275
C        8.22747048      -8.12496395      -0.01130800
Br       8.99686583      -9.50329392      -1.15618236
