190
Properties=species:S:1:pos:R:3 pbc="F F F"
C        4.21366415       5.00117364      -8.14168190
C        4.96793179       3.93118901      -7.37624622
O        4.44954795       3.81052071      -6.04452657
C        4.93733232       4.67957622      -5.11441368
O        5.75620571       5.55722773      -5.36132445
C        4.38484287       4.44191394      -3.78991195
C        4.69400570       5.18016101      -2.65899342
C        5.56592923       6.35210185      -2.41820511
O        4.04592205       4.68641449      -1.56816854
C        3.29981039       3.63014320      -1.98433578
C        2.49530104       2.83921975      -1.16852878
C        1.79912609       1.79912609      -1.79912609
C        1.89544028       1.57374915      -3.18327346
O        1.16541908       0.53176396      -3.70432374
C        1.02167770       0.49169076      -5.12922244
C        0.08392146      -0.61306251      -5.56834877
C       -0.12042143      -1.73681940      -4.74744279
C       -0.94476181      -2.78782520      -5.15526144
C       -1.57475015      -2.73995130      -6.39467104
C       -1.37237723      -1.64532897      -7.23226505
C       -0.54164350      -0.59391771      -6.82844833
C        2.73408087       2.39177638      -3.95901401
C        3.45574221       3.44241492      -3.35190570
H        4.52395790       5.01664038      -9.18956172
H        4.39337391       5.99097681      -7.71195088
H        3.13466195       4.82276327      -8.09308150
H        6.04667376       4.12531110      -7.36122142
H        4.82158699       2.96221591      -7.86256425
H        6.61773462       6.07445197      -2.53297274
H        5.42636303       6.74926405      -1.40841130
H        5.33768619       7.15429042      -3.12618637
H        2.42428191       3.03012683      -0.10341581
H        1.99581092       0.29308464      -5.59244028
H        0.62322351       1.45869665      -5.45507585
H        0.36711292      -1.80425582      -3.77580030
H       -1.09067653      -3.64522015      -4.50266810
H       -2.21689111      -3.55733528      -6.71210212
H       -1.86130285      -1.62372917      -8.20324736
H        2.85263735       2.23566388      -5.02354428
C       -0.34956477       0.48011943      -7.76820893
C       -0.18869883       1.37962553      -8.55525843
Br       0.07140778       2.83405082      -9.82785092
C       -6.32549249      -7.54036565      -3.49066154
C       -4.89785278      -7.39620033      -3.98131391
O       -4.44587802      -6.04557154      -3.81314567
C       -4.76913532      -5.16230564      -4.79988126
O       -5.43629264      -5.45241562      -5.78604962
C       -4.22338104      -3.83588616      -4.55740157
C       -4.40302993      -2.74184507      -5.38828513
C       -5.14656660      -2.53761329      -6.65205631
O       -3.73526452      -1.65662432      -4.90861624
C       -3.12615310      -2.03378249      -3.75435379
C       -2.32980690      -1.21565113      -2.95759154
C       -1.79912609      -1.79912609      -1.79912609
C       -2.06697602      -3.13443085      -1.45105602
O       -1.50408292      -3.60789352      -0.28953033
C       -2.01433553      -4.84657575       0.21832038
C       -1.41890004      -5.18823061       1.56792292
C       -0.16829160      -4.66523543       1.94332506
C        0.41906867      -5.00557701       3.16383391
C       -0.22821070      -5.88130088       4.02954199
C       -1.45912153      -6.42603181       3.67059449
C       -2.04664182      -6.09146702       2.44522172
C       -2.86461147      -3.92184708      -2.29841271
C       -3.40664417      -3.36588574      -3.47753292
H       -6.63470564      -8.58855316      -3.50690119
H       -7.01490931      -6.96550203      -4.11589025
H       -6.42382143      -7.15653519      -2.47015009
H       -4.79095278      -7.71877199      -5.02348151
H       -4.23884545      -8.02849249      -3.37902921
H       -4.66922317      -3.08778658      -7.46814958
H       -5.17792729      -1.47915021      -6.92696087
H       -6.17860151      -2.88674644      -6.55281503
H       -2.13860072      -0.18475989      -3.23446393
H       -1.75244416      -5.66173587      -0.46715581
H       -3.10130588      -4.74947343       0.31378330
H        0.36438394      -3.98408472       1.28104339
H        1.38519483      -4.58652844       3.43456218
H        0.22822881      -6.14585584       4.97975129
H       -1.95074684      -7.11781472       4.35034623
H       -3.07470384      -4.96031368      -2.07682800
C       -3.29822647      -6.72954680       2.12900968
C       -4.34642862      -7.26393861       1.86418210
Br      -6.04128284      -8.12800497       1.43597829
C       -3.38784278       7.06872299       6.89995392
C       -3.58536385       5.57992726       7.11007591
O       -3.56134123       4.89051271       5.85274128
C       -4.73099855       4.84633190       5.15399177
O       -5.77013775       5.37942582       5.52519432
C       -4.61160846       4.08454003       3.92052028
C       -5.63744378       3.88476734       3.01094901
C       -7.04494247       4.33983185       2.95146188
O       -5.22262273       3.09701186       1.98087049
C       -3.91893620       2.78874286       2.20661031
C       -3.12594232       1.98789748       1.38920977
C       -1.79912609       1.79912609       1.79912609
C       -1.29030446       2.39704307       2.96511536
O        0.02726482       2.15471402       3.27405757
C        0.62236283       2.99318190       4.27177183
C        2.10506853       2.72427571       4.42000054
C        2.63867725       1.47556692       4.05331230
C        3.99521662       1.19191928       4.22597177
C        4.84345930       2.14775915       4.77566974
C        4.33356438       3.38490503       5.16321820
C        2.97330529       3.66908086       4.99711155
C       -2.13755433       3.18396932       3.76334761
C       -3.48189192       3.38588105       3.38228986
H       -3.28778771       7.58345190       7.85892038
H       -4.23326880       7.50393228       6.35910052
H       -2.49240492       7.25862089       6.29948091
H       -4.51039880       5.36519665       7.65761083
H       -2.75850786       5.18208247       7.70577683
H       -7.63546143       3.85526723       3.73443066
H       -7.49843584       4.10057822       1.98502431
H       -7.10582196       5.42345923       3.08888179
H       -3.52988225       1.53988110       0.48806121
H        0.15799786       2.79407686       5.24525684
H        0.46945142       4.03540407       3.97104336
H        1.99569354       0.70589399       3.62845695
H        4.38629974       0.22078778       3.93228338
H        5.89932553       1.92765242       4.90954884
H        5.00380655       4.12030951       5.60171237
H       -1.78948351       3.64222815       4.68013385
C        2.51628371       4.95307183       5.46197546
C        2.13352813       6.02841426       5.85129899
Br       1.51464473       7.76715204       6.48080221
C        7.89570510      -5.71985717       3.74095742
C        6.55424892      -6.33286237       3.38825573
O        5.52115294      -5.33968936       3.44375292
C        4.97379438      -5.09043114       4.66709670
O        5.33313300      -5.63959619       5.70202870
C        3.90505803      -4.10548552       4.60612522
C        3.18136622      -3.65391655       5.69787736
C        3.24130681      -3.94720171       7.14772768
O        2.22564205      -2.76543907       5.30942396
C        2.32910733      -2.62280578       3.96237626
C        1.52100905      -1.80935936       3.17268116
C        1.79912609      -1.79912609       1.79912609
C        2.84649756      -2.55772528       1.24824005
O        3.04062576      -2.47092575      -0.11004473
C        4.27417625      -2.98992482      -0.62151017
C        4.43139208      -2.70884448      -2.10102885
C        3.29759533      -2.49927727      -2.90667063
C        3.41902680      -2.28502417      -4.28137654
C        4.67523914      -2.28380458      -4.87907414
C        5.81090491      -2.50753478      -4.10388084
C        5.69119207      -2.72886455      -2.72716951
C        3.62264218      -3.37457191       2.08765718
C        3.36171651      -3.41375014       3.47459617
H        8.70185784      -6.44159081       3.58671134
H        7.91591871      -5.39503310       4.78534978
H        8.08912015      -4.83433735       3.12704922
H        6.31384251      -7.18549391       4.03386985
H        6.58157516      -6.70495005       2.35984194
H        2.91051859      -4.97135612       7.34328461
H        2.60013831      -3.26733166       7.71656840
H        4.26289010      -3.83312250       7.52215038
H        0.72186842      -1.22316085       3.61279528
H        4.29663996      -4.07909354      -0.49439767
H        5.09364789      -2.51469999      -0.07135188
H        2.30141563      -2.50353249      -2.46629074
H        2.52877399      -2.12201159      -4.88401415
H        4.77020408      -2.11641180      -5.94874015
H        6.78668267      -2.51512343      -4.58359077
H        4.42284621      -3.99075549       1.69824382
C        6.90747780      -2.99496349      -2.00367770
C        7.92611709      -3.21782136      -1.39775332
Br       9.57317067      -3.57816367      -0.41802483
C       -0.00445707       0.01189536      -1.78238275
H       -0.66409135       0.67374010      -2.43557963
H        0.65740317      -0.63156657      -2.45157240
C       -0.90989263      -0.90692880      -0.91072765
C        0.90977584       0.90977584      -0.90977584
C       -0.00465871       1.77757030       0.00794375
H       -0.66225468       2.44313916      -0.64384735
H        0.64322798       2.43503045       0.67728295
C       -1.78241447       0.00034974      -0.00472694
H       -2.45427497      -0.65498947       0.64260836
H       -2.43311707       0.67328779      -0.65473579
C       -0.91132561       0.90220522       0.91563759
C       -0.01476271      -0.02253852       1.78660255
H       -0.67934791      -0.69751639       2.42135241
H        0.63392994       0.61504881       2.47327442
C        0.01484550      -1.77751727      -0.01636693
H        0.67870853      -2.42144646      -0.68295456
H       -0.62264859      -2.45592969       0.64226336
C        1.78714474       0.01002794       0.00389507
H        2.44202412       0.67113390       0.66197326
H        2.45385902      -0.65136977      -0.64189061
C        0.91606151      -0.90478549       0.90901405
