197
Properties=species:S:1:pos:R:3 pbc="F F F"
C        0.00000000       0.00000000       0.00000000
C        0.88130769       0.88130769      -0.88130769
C        0.35141916       1.46330068      -2.03409730
C        1.15502240       2.27281979      -2.84473085
C        2.49614685       2.49481513      -2.50216884
C        3.01121297       1.91328316      -1.33324589
C        2.20851841       1.10561670      -0.52508478
C        3.41677724       3.33601256      -3.31371506
O        4.44849856       3.77904589      -2.81582336
N        3.09892463       3.55343454      -4.64869227
N        4.00214199       4.29679240      -5.44961875
C        4.94725162       3.38556393      -6.13060995
C        5.87441236       4.16060215      -7.08102833
N        5.47289686       5.04150488      -7.95930588
N        4.16049527       5.39926209      -7.94440730
C        3.57579928       6.21837815      -8.89025761
O        2.50909457       6.78355313      -8.64912198
C        4.20281291       6.38228723     -10.23466289
C        3.90624360       7.53880899     -10.97089121
C        4.41371950       7.70658979     -12.26339090
C        5.21847902       6.71631971     -12.82391524
C        5.50955269       5.55574802     -12.11119717
C        4.98820395       5.38367886     -10.82604235
C        7.31920156       3.75192204      -7.13397511
C        7.98733968       3.82558227      -8.36651761
C        9.31408981       3.40845575      -8.48415976
C        9.98885501       2.92260572      -7.36807343
C        9.34267017       2.86877384      -6.13312024
C        8.01273789       3.28748774      -6.01123702
H       -0.68980712       1.29732321      -2.30330422
H        0.70386775       2.73699256      -3.71588156
H        4.04809910       2.08753295      -1.04500990
H        2.62641009       0.66278599       0.37594458
H        2.27986393       3.14029245      -5.08699052
H        4.55174958       4.88536274      -4.80441822
H        4.38901819       2.67368949      -6.75120349
H        5.50625688       2.80854128      -5.39169053
H        3.65462326       5.30026079      -7.06199480
H        3.26691468       8.30828447     -10.54193716
H        4.16733175       8.60514482     -12.82285433
H        6.12575937       4.77387260     -12.54697012
H        5.18683347       4.45314811     -10.30346040
H        7.47768710       4.20228305      -9.24996198
H        9.81694026       3.46417984      -9.44655481
H       11.02203099       2.59547918      -7.45875501
H        9.87956597       2.50385138      -5.26036604
H        7.55424098       3.25820519      -5.02682321
C        5.73836752       6.88270503     -14.15644362
C        6.17377413       7.02205273     -15.27243614
Br       6.87778980       7.24736618     -17.07690165
C       -0.88130769      -0.88130769      -0.88130769
C       -2.22306056      -0.54948160      -1.07627497
C       -3.03479785      -1.35366310      -1.88411209
C       -2.50153141      -2.49789772      -2.49370169
C       -1.14749271      -2.81157842      -2.29867090
C       -0.33838137      -2.00850720      -1.49233133
C       -3.29900895      -3.40713074      -3.36036517
O       -2.73374019      -4.17599695      -4.13363068
N       -4.68184860      -3.39309183      -3.22611101
N       -5.44846489      -4.30237245      -3.99771580
C       -5.68378802      -5.54637758      -3.23325991
C       -6.59538827      -6.50913879      -4.01151578
N       -7.72541981      -6.17256888      -4.57571892
N       -8.05727958      -4.85341607      -4.59346901
C       -9.27208557      -4.37187282      -5.04047665
O       -9.39237885      -3.18919152      -5.36019931
C      -10.46524469      -5.26720250      -5.08731584
C      -11.50807775      -4.94099558      -5.96687047
C      -12.67639808      -5.70930297      -5.99799914
C      -12.80540241      -6.80584707      -5.14746450
C      -11.78495357      -7.13344948      -4.25809483
C      -10.62526362      -6.35463705      -4.21802448
C       -6.26105903      -7.97331058      -3.97072910
C       -7.31768452      -8.89769873      -3.96405631
C       -7.06581236     -10.26752916      -3.87336380
C       -5.75424116     -10.72703642      -3.79825658
C       -4.69592558      -9.81899188      -3.82964679
C       -4.94479060      -8.44478156      -3.92189049
H       -2.64173819       0.33933046      -0.60841257
H       -4.06472573      -1.04999562      -2.04202053
H       -0.71365711      -3.68994226      -2.77704258
H        0.70809134      -2.26903494      -1.35230791
H       -5.15624032      -2.80540306      -2.54550351
H       -4.87401579      -4.54879154      -4.81872321
H       -6.20608111      -5.30988031      -2.29794975
H       -4.73025265      -6.00722942      -2.96900662
H       -7.29476909      -4.17457329      -4.54753647
H      -11.41684027      -4.07728668      -6.62300934
H      -13.47785189      -5.43760182      -6.67987718
H      -11.88413071      -7.97933848      -3.58313290
H       -9.86026593      -6.59641953      -3.48675653
H       -8.34911817      -8.55872901      -4.02208495
H       -7.89410229     -10.97178044      -3.86179218
H       -5.55665092     -11.79398132      -3.72563294
H       -3.67220343     -10.18414464      -3.78743533
H       -4.09344617      -7.77198065      -3.97384257
C      -14.00892336      -7.59610732      -5.17248549
C      -15.01687216      -8.25795028      -5.19344056
Br     -16.64664012      -9.32809437      -5.22732314
C       -0.88130769       0.88130769       0.88130769
C       -0.37585694       2.07581872       1.39714148
C       -1.18017402       2.88767099       2.20472802
C       -2.49367683       2.49795190       2.50150210
C       -2.99206300       1.30055208       1.96512694
C       -2.18863429       0.49113758       1.15944803
C       -3.40918252       3.30074896       3.35657339
O       -4.62192751       3.11191017       3.30953014
N       -2.84716711       4.21887888       4.23500545
N       -3.70446745       4.94141346       5.10267223
C       -3.83586474       4.23319307       6.39436770
C       -4.68270817       5.04648962       7.38684505
N       -4.51009866       6.31556725       7.64804170
N       -3.60794125       7.00105864       6.89516477
C       -3.23446075       8.30750690       7.14246739
O       -2.70288173       8.97996538       6.25892258
C       -3.42061232       8.89924979       8.49990091
C       -3.51014288      10.29464768       8.61115323
C       -3.61564626      10.90087919       9.86717474
C       -3.63017845      10.11228678      11.01624875
C       -3.52704005       8.72654957      10.92290826
C       -3.40583593       8.12454225       9.66754697
C       -5.65762869       4.29725240       8.25021762
C       -5.86810048       4.74844339       9.56289569
C       -6.72226423       4.05926176      10.42517933
C       -7.38197358       2.91747130       9.98008928
C       -7.19983055       2.47475418       8.66997952
C       -6.34510298       3.16416489       7.80219478
H        0.64184025       2.38519573       1.16746483
H       -0.76824302       3.82578634       2.56271252
H       -4.01595423       0.99013052       2.17455720
H       -2.59256961      -0.43371880       0.75440069
H       -1.84174714       4.33901500       4.32638475
H       -4.63567154       4.94769410       4.65816490
H       -2.84566463       4.11631087       6.85193566
H       -4.24196432       3.23322521       6.23129915
H       -3.41234376       6.64836277       5.95617233
H       -3.48533729      10.91483948       7.71695953
H       -3.67588781      11.98383595       9.93560713
H       -3.52479432       8.10646876      11.81533901
H       -3.27973320       7.04756068       9.61614811
H       -5.36222143       5.63833013       9.92938057
H       -6.87024876       4.41581144      11.44161471
H       -8.04630908       2.37844944      10.65150665
H       -7.73053247       1.59142545       8.32182548
H       -6.25300213       2.80528128       6.78098597
C       -3.73305881      10.73287741      12.31157994
C       -3.81922112      11.25262207      13.39641981
Br      -3.95853828      12.09300522      15.15051413
C        0.88130769      -0.88130769       0.88130769
C        1.97670543      -1.54537131       0.32674040
C        2.78822411      -2.35362468       1.13072425
C        2.49726060      -2.50183393       2.49403628
C        1.40007479      -1.81771753       3.03994970
C        0.59089611      -1.01150621       2.23681758
C        3.30601700      -3.34702083       3.41346704
O        3.23402351      -3.18101781       4.62832650
N        4.09149875      -4.35022376       2.85932892
N        4.81421093      -5.20542842       3.72891379
C        4.01496122      -6.41095105       4.03751323
C        4.81627297      -7.39921242       4.90055745
N        6.03764786      -7.78948441       4.64657534
N        6.69822511      -7.18130817       3.62463137
C        7.93939325      -7.57811843       3.16692336
O        8.63207297      -6.80793329       2.50176342
C        8.42948796      -8.96369543       3.42657964
C        9.81289177      -9.19475335       3.40829867
C       10.31848034     -10.48782056       3.57739929
C        9.44074027     -11.55427503       3.76369869
C        8.06416555     -11.34302129       3.76931104
C        7.56127028     -10.05231749       3.58433739
C        4.08983992      -8.10504895       6.01020985
C        4.44647484      -9.43126092       6.30170380
C        3.76862699     -10.15168865       7.28638968
C        2.73376296      -9.54969037       7.99608083
C        2.38792263      -8.22442314       7.73221849
C        3.06640855      -7.49860559       6.74644851
H        2.20948706      -1.43148216      -0.73014892
H        3.65108763      -2.82964818       0.67600607
H        1.16852828      -1.91090111       4.10121256
H       -0.25558886      -0.49067678       2.67816359
H        4.11064408      -4.53647221       1.86003060
H        4.94337327      -4.68665639       4.61150088
H        3.76954007      -6.93748148       3.10688962
H        3.07380102      -6.12313361       4.50955405
H        6.40926267      -6.23367065       3.37394553
H       10.50116630      -8.36658697       3.24938303
H       11.39278545     -10.65014969       3.55239575
H        7.37366408     -12.17172332       3.90121469
H        6.48541062      -9.91297633       3.54505503
H        5.25213914      -9.91918755       5.75860544
H        4.05052687     -11.18052387       7.49662417
H        2.20351500     -10.11049584       8.76225434
H        1.58950445      -7.75319983       8.30107911
H        2.78772854      -6.46012057       6.59142028
C        9.95702972     -12.88788564       3.93260080
C       10.38942214     -14.00478453       4.07405633
Br      11.08856411     -15.81071557       4.30277794
