189
Properties=species:S:1:pos:R:3 pbc="F F F"
C        0.00000000       0.00000000       0.00000000
C        0.88130769       0.88130769      -0.88130769
C        0.35141916       1.46330068      -2.03409730
C        1.15502240       2.27281979      -2.84473085
C        2.49614685       2.49481513      -2.50216884
C        3.01121297       1.91328316      -1.33324589
C        2.20851841       1.10561670      -0.52508478
C        3.41677724       3.33601256      -3.31371506
O        4.44849856       3.77904589      -2.81582336
N        3.09892463       3.55343454      -4.64869227
N        4.00214199       4.29679240      -5.44961875
C        4.94725162       3.38556393      -6.13060995
C        5.87441236       4.16060215      -7.08102833
N        5.47289686       5.04150488      -7.95930588
N        4.16049527       5.39926209      -7.94440730
C        3.57579928       6.21837815      -8.89025761
O        2.50909457       6.78355313      -8.64912198
C        4.20281291       6.38228723     -10.23466289
C        3.90624360       7.53880899     -10.97089121
C        4.41371950       7.70658979     -12.26339090
C        5.21847902       6.71631971     -12.82391524
Br       5.90082680       6.93469856     -14.57284370
C        5.50955269       5.55574802     -12.11119717
C        4.98820395       5.38367886     -10.82604235
C        7.31920156       3.75192204      -7.13397511
C        7.98733968       3.82558227      -8.36651761
C        9.31408981       3.40845575      -8.48415976
C        9.98885501       2.92260572      -7.36807343
C        9.34267017       2.86877384      -6.13312024
C        8.01273789       3.28748774      -6.01123702
H       -0.68980712       1.29732321      -2.30330422
H        0.70386775       2.73699256      -3.71588156
H        4.04809910       2.08753295      -1.04500990
H        2.62641009       0.66278599       0.37594458
H        2.27986393       3.14029245      -5.08699052
H        4.55174958       4.88536274      -4.80441822
H        4.38901819       2.67368949      -6.75120349
H        5.50625688       2.80854128      -5.39169053
H        3.65462326       5.30026079      -7.06199480
H        3.26691468       8.30828447     -10.54193716
H        4.16733175       8.60514482     -12.82285433
H        6.12575937       4.77387260     -12.54697012
H        5.18683347       4.45314811     -10.30346040
H        7.47768710       4.20228305      -9.24996198
H        9.81694026       3.46417984      -9.44655481
H       11.02203099       2.59547918      -7.45875501
H        9.87956597       2.50385138      -5.26036604
H        7.55424098       3.25820519      -5.02682321
C       -0.88130769      -0.88130769      -0.88130769
C       -2.25011993      -0.62422002      -0.97447719
C       -3.06206040      -1.42866278      -1.78184987
C       -2.50125147      -2.49837841      -2.49350094
C       -1.12127805      -2.73661411      -2.39984987
C       -0.31198235      -1.93335467      -1.59388288
C       -3.29645321      -3.40306148      -3.36699017
O       -2.73652881      -4.08704382      -4.21979519
N       -4.66636430      -3.48479240      -3.14989474
N       -5.42478974      -4.39323390      -3.93052950
C       -5.53654984      -5.69302748      -3.23384818
C       -6.43664153      -6.66354595      -4.01585537
N       -7.61823906      -6.36628539      -4.48918316
N       -8.02862751      -5.07213177      -4.40340538
C       -9.29588910      -4.64281389      -4.74573206
O       -9.50652986      -3.45318737      -4.98205245
C      -10.43409937      -5.60763089      -4.77803276
C      -11.54821365      -5.29635833      -5.57137181
C      -12.66825746      -6.13399668      -5.58144605
C      -12.67743591      -7.28527850      -4.79599957
Br     -14.19127918      -8.41678129      -4.80030860
C      -11.58491511      -7.59994633      -3.99163644
C      -10.47352819      -6.75292344      -3.97147353
C       -6.01368414      -8.10338503      -4.08802955
C       -7.01075221      -9.09168111      -4.07700624
C       -6.67239911     -10.44574305      -4.08856316
C       -5.33364265     -10.82479407      -4.12109744
C       -4.33548408      -9.85119842      -4.15788175
C       -4.67120103      -8.49248998      -4.14777164
H       -2.69053340       0.20676234      -0.42704924
H       -4.11620185      -1.18205824      -1.85848180
H       -0.66705379      -3.55559979      -2.95798837
H        0.75493423      -2.13486734      -1.53331839
H       -5.13082996      -2.97001016      -2.40630677
H       -4.88990224      -4.55332349      -4.79830481
H       -6.01163770      -5.54632991      -2.25594355
H       -4.54239250      -6.10740651      -3.05668967
H       -7.30657893      -4.35024085      -4.36005908
H      -11.55044426      -4.39101526      -6.17567679
H      -13.52612045      -5.87350045      -6.19570999
H      -11.59046273      -8.48916321      -3.36697615
H       -9.65063428      -6.98887211      -3.30393559
H       -8.06216366      -8.81595983      -4.05180864
H       -7.45481487     -11.20054731      -4.07231272
H       -5.06857290     -11.87948598      -4.12820630
H       -3.29119678     -10.15254926      -4.20003736
H       -3.86650412      -7.76514643      -4.20761883
C       -0.88130769       0.88130769       0.88130769
C       -0.75749712       2.27035460       0.82096542
C       -1.56384341       3.08258407       1.62614556
C       -2.49322536       2.50046911       2.49943635
C       -2.61520009       1.10284448       2.53969746
C       -1.81006627       0.29326420       1.73588943
C       -3.38147441       3.29317578       3.39185467
O       -4.39171201       2.78278478       3.86887103
N       -3.00377575       4.59333439       3.70394130
N       -3.80630397       5.33567964       4.60656953
C       -3.30231720       5.17358245       5.98752586
C       -4.09712385       6.04699685       6.97192214
N       -4.36422645       7.31427830       6.79520287
N       -4.03447007       7.87108548       5.59860911
C       -4.14241561       9.21991659       5.32210284
O       -4.16980889       9.61533027       4.15663052
C       -4.17060501      10.21592424       6.43323377
C       -4.75807533      11.46648932       6.19137913
C       -4.74789197      12.45781338       7.17799484
C       -4.14803248      12.20112642       8.40955508
Br      -4.12504834      13.53969076       9.74362996
C       -3.54746932      10.96965151       8.65937706
C       -3.54524640       9.98652557       7.66615319
C       -4.43685236       5.45701619       8.31123017
C       -4.44430172       6.30516810       9.42996974
C       -4.70090167       5.80019384      10.70560981
C       -4.96221947       4.44356264      10.87375206
C       -4.98235470       3.59627636       9.76593319
C       -4.72682222       4.09948199       8.48515844
H       -0.04020884       2.72802957       0.14258189
H       -1.46604368       4.15931768       1.53138053
H       -3.34298785       0.63477418       3.20287993
H       -1.91855737      -0.78777530       1.78246943
H       -2.13813279       5.00453094       3.36448316
H       -4.75000373       4.91976304       4.57176378
H       -2.26036980       5.51274983       6.04079154
H       -3.31878361       4.11901239       6.26869268
H       -3.97783138       7.25003820       4.78900928
H       -5.21547973      11.67561782       5.22603875
H       -5.20047264      13.42393863       6.97091963
H       -3.06670351      10.76720276       9.61269582
H       -3.03226424       9.04992593       7.86125182
H       -4.24268920       7.36783104       9.31941188
H       -4.69621089       6.46729997      11.56416405
H       -5.16042869       4.04845820      11.86737830
H       -5.20348674       2.53980991       9.90048675
H       -4.78122110       3.41347240       7.64457588
C        0.88130769      -0.88130769       0.88130769
C        1.95163105      -1.57858305       0.31860303
C        2.76306117      -2.38698862       1.12252325
C        2.49710316      -2.50189662       2.49413104
C        1.42521714      -1.78471341       3.04781147
C        0.61610258      -0.97837981       2.24473750
C        3.30739134      -3.34485271       3.41426082
O        3.26357179      -3.15312308       4.62667294
N        4.06114415      -4.37478811       2.86511918
N        4.78420435      -5.22699789       3.73735089
C        3.96745001      -6.40951901       4.08645649
C        4.76627996      -7.39646787       4.95329501
N        5.97415197      -7.81661925       4.68293640
N        6.62575632      -7.24264928       3.63575906
C        7.84912024      -7.67381960       3.16149521
O        8.54334708      -6.93141947       2.46700313
C        8.31657772      -9.06364392       3.43954139
C        9.69441571      -9.32323763       3.39829045
C       10.17736277     -10.62271967       3.58361775
C        9.28243587     -11.66707455       3.80920356
Br       9.92926674     -13.42611320       4.05298912
C        7.91076883     -11.42767009       3.83805896
C        7.43014234     -10.13092333       3.63685948
C        4.04868340      -8.06495658       6.09145874
C        4.38457477      -9.39207601       6.40278878
C        3.71269820     -10.07864464       7.41536248
C        2.70481045      -9.44154012       8.13318359
C        2.38025488      -8.11503236       7.84927701
C        3.05285503      -7.42311086       6.83549677
H        2.16500438      -1.49065727      -0.74484135
H        3.60675039      -2.88955075       0.66044074
H        1.21358236      -1.85187976       4.11517983
H       -0.21059091      -0.43163245       2.69220996
H        4.05613594      -4.58135923       1.86965172
H        4.94173271      -4.69340613       4.60639171
H        3.69257364      -6.94945249       3.17188503
H        3.04208185      -6.09313940       4.57126743
H        6.35076375      -6.29451494       3.37160016
H       10.39574313      -8.51265408       3.20873909
H       11.24746728     -10.80743212       3.54043150
H        7.20665278     -12.23928440       4.00066491
H        6.35671025      -9.97044480       3.61628694
H        5.16904416      -9.90713729       5.85375068
H        3.97817892     -11.10860906       7.64088694
H        2.17920486      -9.97594244       8.92111788
H        1.60322056      -7.61629981       8.42426302
H        2.79191398      -6.38246105       6.66489435
