177
Properties=species:S:1:pos:R:3 pbc="F F F"
C        0.00000000       0.00000000       0.00000000
C        0.88193707       0.88193707      -0.88193707
C        0.52880202       1.10113710      -2.21099013
C        1.33953876       1.90442648      -3.01570071
C        2.49908993       2.49662522      -2.49249227
C        2.84782579       2.26502999      -1.15603358
C        2.03620479       1.45795888      -0.35166799
C        3.33563244       3.32859722      -3.40600262
O        3.24969067       3.12034490      -4.61738193
C        4.30971811       4.34114856      -2.80062752
C        4.59604951       5.48679003      -3.75498888
C        3.78440879       6.55676689      -3.90350073
C        2.51669068       6.78701377      -3.15367252
O        1.89136538       5.88621257      -2.60356583
C        1.99770348       8.18129555      -3.11170636
C        0.61287223       8.37859089      -3.04452002
C        0.08655489       9.67315445      -2.98855699
C        0.94747958      10.76865026      -2.98681613
C        2.32874287      10.58496837      -3.03517309
C        2.85658940       9.29125697      -3.09281867
C        5.84793624       5.41128313      -4.56841330
C        6.33091577       4.18533701      -5.05428426
C        7.50479203       4.11585913      -5.81244043
C        8.21992731       5.27227675      -6.10356152
C        7.76883689       6.49691220      -5.62563768
C        6.60238044       6.56436678      -4.85719034
H       -0.36824760       0.65507778      -2.63225006
H        1.06236249       2.07357102      -4.05464319
H        3.74930169       2.68940348      -0.72342470
H        2.31465919       1.28091694       0.68359960
H        5.23090052       3.81302240      -2.52720134
H        3.90719148       4.74065616      -1.86400464
H        4.01561929       7.32288954      -4.63704665
H       -0.06085610       7.52297237      -3.03724769
H       -0.99092696       9.81061350      -2.94258553
H        3.00119643      11.43883422      -3.01837129
H        3.93600231       9.16923171      -3.09878449
H        5.78889537       3.26033006      -4.87698963
H        7.84939413       3.15368446      -6.18271111
H        9.12452113       5.21748822      -6.70303035
H        8.32324298       7.40451260      -5.85014790
H        6.29842362       7.53855262      -4.48350713
C        0.40714161      12.10201296      -2.92534428
C       -0.04539143      13.21870422      -2.87386161
Br      -0.77709910      15.02429955      -2.79061848
C       -0.88193707      -0.88193707      -0.88193707
C       -2.05960269      -0.36526513      -1.41606143
C       -2.86574523      -1.17551504      -2.21840567
C       -2.49312228      -2.49968762      -2.49539752
C       -1.30947102      -3.01086675      -1.94855158
C       -0.50410940      -2.19895407      -1.14276819
C       -3.40477595      -3.32263455      -3.34282179
O       -4.59232285      -2.99853643      -3.39655822
C       -2.84662175      -4.56471972      -4.04015271
C       -3.63668278      -4.91172156      -5.28942408
C       -3.44247335      -4.31578092      -6.48642214
C       -2.42816192      -3.26041389      -6.76880117
O       -1.92091325      -2.56793922      -5.89229132
C       -2.05464073      -3.04305568      -8.19300898
C       -1.68197748      -1.75547284      -8.59853282
C       -1.30991453      -1.51352140      -9.92483041
C       -1.29876160      -2.56326653     -10.84091784
C       -1.65028087      -3.85321185     -10.44539161
C       -2.02413277      -4.09653265      -9.11999963
C       -4.68378037      -5.97206542      -5.17178688
C       -5.45124846      -6.11492134      -4.00436724
C       -6.42845371      -7.11020870      -3.89442918
C       -6.66121374      -7.98294182      -4.95161003
C       -5.90797725      -7.86932312      -6.11408640
C       -4.92263800      -6.88249819      -6.21880136
H       -2.36181694       0.65945766      -1.21672096
H       -3.78648603      -0.77009868      -2.63399199
H       -1.00074704      -4.03742641      -2.12395642
H        0.41152531      -2.60342986      -0.72007198
H       -2.85260677      -5.39477014      -3.32374735
H       -1.79590536      -4.40963560      -4.30631132
H       -4.07081082      -4.57050083      -7.33424383
H       -1.68208713      -0.93573705      -7.88153978
H       -1.02869534      -0.50747595     -10.22610078
H       -1.62694902      -4.67533608     -11.15611684
H       -2.26454269      -5.11410554      -8.82537027
H       -5.32471610      -5.43666229      -3.16483667
H       -7.01325987      -7.19085929      -2.98167054
H       -7.42917201      -8.74715558      -4.86871212
H       -6.08545495      -8.54830541      -6.94414313
H       -4.34063335      -6.84406427      -7.13578575
C       -0.91219451      -2.31638926     -12.20591509
C       -0.58844457      -2.10962955     -13.34910029
Br      -0.06496829      -1.77531658     -15.19753406
C       -0.88193707       0.88193707       0.88193707
C       -2.19016154       0.49275250       1.15801521
C       -2.99512520       1.30343381       1.96110694
C       -2.49258124       2.49922380       2.49640239
C       -1.17721892       2.88383515       2.20783529
C       -0.37269468       2.07212984       1.40100714
C       -3.40615558       3.33306506       3.33101164
O       -4.62011052       3.20004455       3.16726243
C       -2.80129658       4.36069119       4.28950641
C       -3.72648854       4.65432004       5.45701984
C       -3.81169758       3.87527769       6.55770114
C       -3.01175274       2.64166159       6.80396265
O       -2.47066953       2.00442869       5.90604556
C       -2.90598412       2.17232993       8.21239134
C       -2.78499300       0.79803478       8.45295536
C       -2.66828989       0.31843402       9.76154243
C       -2.65976945       1.21590450      10.82727201
C       -2.76138037       2.58772387      10.59978010
C       -2.87978825       3.06882560       9.29205121
C       -4.58429972       5.87531153       5.36802141
C       -5.12667323       6.29975511       4.14410870
C       -5.92641164       7.44485806       4.06182189
C       -6.20342167       8.18910401       5.20323990
C       -5.67012015       7.79620585       6.42506078
C       -4.86042285       6.65878539       6.50472932
H       -2.59501709      -0.43246460       0.75652776
H       -4.01782017       0.99800281       2.17475372
H       -0.76189569       3.81310718       2.58712700
H        0.64602473       2.37844594       1.17955531
H       -2.57714426       5.27181128       3.72216872
H       -1.83875895       4.00325178       4.66984155
H       -4.52698792       4.10817087       7.34039670
H       -2.78298045       0.09604989       7.62033362
H       -2.58097859      -0.75160735       9.93290084
H       -2.73936040       3.28917151      11.42987003
H       -2.92669491       4.14264642       9.13467718
H       -4.96162922       5.73257797       3.23200788
H       -6.33986199       7.74392341       3.10200429
H       -6.83495799       9.07097870       5.13910301
H       -5.88332540       8.37359821       7.32097987
H       -4.44455663       6.40084288       7.47508385
C       -2.53580140       0.72380795      12.17488951
C       -2.43197815       0.31167709      13.30351916
Br      -2.26410474      -0.35470365      15.12841785
C        0.88193707      -0.88193707       0.88193707
C        0.47653831      -1.18522470       2.17916623
C        1.28718796      -1.98822616       2.98425183
C        2.49928373      -2.49629596       2.49262772
C        2.90002230      -2.18048002       1.18838703
C        2.08828167      -1.37376646       0.38378353
C        3.33187168      -3.33219115       3.40616946
O        3.17697325      -3.19017706       4.62026720
C        4.38429721      -4.26437099       2.80282598
C        4.68199657      -5.44184796       3.71398390
C        3.91955554      -6.55598854       3.76913233
C        2.70292624      -6.80886631       2.94558443
O        2.05996209      -5.91256692       2.40861477
C        2.25811231      -8.22267847       2.80991461
C        0.88997019      -8.48304518       2.66296776
C        0.43345288      -9.79702794       2.51778552
C        1.34801940     -10.84810043       2.50682614
C        2.71420487     -10.60052916       2.63415030
C        3.17220955      -9.28740804       2.78104746
C        5.88762262      -5.34732681       4.59268324
C        6.28360549      -4.12573854       5.16119301
C        7.41439257      -4.03819522       5.98050380
C        8.17246209      -5.17197480       6.25132869
C        7.80783880      -6.39111735       5.69243062
C        6.68484811      -6.47576047       4.86332898
H       -0.46134476      -0.80505773       2.57536728
H        0.96904686      -2.22316319       3.99836665
H        3.84176741      -2.53822374       0.78213872
H        2.40711864      -1.13107646      -0.62621857
H        5.28959082      -3.67909956       2.60243389
H        4.04836389      -4.63475669       1.82873170
H        4.15365955      -7.34632454       4.47557141
H        0.17476652      -7.66174774       2.66284970
H       -0.63216435      -9.98392022       2.41051620
H        3.42921209     -11.41891633       2.61027353
H        4.24247223      -9.11378481       2.84776147
H        5.70448102      -3.22021262       5.00152142
H        7.69133586      -3.08054513       6.41390871
H        9.04305118      -5.10404215       6.89794637
H        8.39615033      -7.28108038       5.90067278
H        6.44922545      -7.44325303       4.42800488
C        0.87975440     -12.20118479       2.35355967
C        0.48758246     -13.33439294       2.22519900
Br      -0.14652639     -15.16669467       2.01765065
