198
Properties=species:S:1:pos:R:3 pbc="F F F"
C        1.79184110       1.79184110      -1.79184110
C        1.43870605       2.01104112      -3.12089415
C        2.24944278       2.81433051      -3.92560474
C        3.40899396       3.40652924      -3.40239629
C        3.75772982       3.17493401      -2.06593760
C        2.94610882       2.36786290      -1.26157202
C        4.24553646       4.23850124      -4.31590665
O        4.15959470       4.03024892      -5.52728595
C        5.21962213       5.25105258      -3.71053154
C        5.50595354       6.39669406      -4.66489291
C        4.69431282       7.46667091      -4.81340475
C        3.42659471       7.69691779      -4.06357655
O        2.80126941       6.79611660      -3.51346985
C        2.90760750       9.09119958      -4.02161038
C        1.52277625       9.28849491      -3.95442404
C        0.99645891      10.58305848      -3.89846102
C        1.85738360      11.67855428      -3.89672016
C        3.23864690      11.49487239      -3.94507711
C        3.76649343      10.20116100      -4.00272270
C        6.75784027       6.32118715      -5.47831732
C        7.24081980       5.09524103      -5.96418829
C        8.41469605       5.02576316      -6.72234445
C        9.12983134       6.18218078      -7.01346554
C        8.67874092       7.40681622      -6.53554171
C        7.51228447       7.47427080      -5.76709437
H        0.54165643       1.56498181      -3.54215408
H        1.97226651       2.98347505      -4.96454722
H        4.65920571       3.59930751      -1.63332872
H        3.22456322       2.19082096      -0.22630442
H        6.14080454       4.72292643      -3.43710536
H        4.81709550       5.65056019      -2.77390867
H        4.92552332       8.23279357      -5.54695067
H        0.84904793       8.43287639      -3.94715171
H       -0.08102294      10.72051753      -3.85248956
H        3.91110046      12.34873824      -3.92827532
H        4.84590634      10.07913573      -4.00868851
H        6.69879939       4.17023409      -5.78689366
H        8.75929815       4.06358848      -7.09261513
H       10.03442516       6.12739225      -7.61293437
H        9.23314700       8.31441663      -6.76005193
H        7.20832764       8.44845664      -5.39341115
C        1.31704564      13.01191699      -3.83524831
C        0.86451259      14.12860825      -3.78376563
Br       0.13280493      15.93420357      -3.70052251
C       -1.79184110      -1.79184110      -1.79184110
C       -2.31758431      -1.27838412      -2.97467289
C       -3.12696656      -2.08593429      -3.77647717
C       -3.40562005      -3.40946946      -3.40282998
C       -2.87622472      -3.91395462      -2.20842209
C       -2.06770256      -3.10309252      -1.40474866
C       -4.29259887      -4.21724343      -4.29010205
O       -5.07182794      -3.61484943      -5.03045221
C       -4.25006862      -5.74313621      -4.18800142
C       -4.67533895      -6.40622134      -5.48598021
C       -3.84848792      -6.58662060      -6.53927997
C       -2.41200204      -6.19060283      -6.58448418
O       -1.92604853      -5.34831241      -5.83649492
C       -1.56022837      -6.84630144      -7.61388766
C       -0.48694083      -6.12598435      -8.15277003
C        0.34569082      -6.71218898      -9.11148025
C        0.11100528      -8.02331698      -9.52034634
C       -0.94330388      -8.75711161      -8.97818091
C       -1.77778723      -8.17191342      -8.02067647
C       -6.08977702      -6.87886764      -5.58870008
C       -7.14263014      -6.17003638      -4.98758259
C       -8.46557743      -6.61567502      -5.08155121
C       -8.76455003      -7.77925359      -5.78167403
C       -7.73940502      -8.50479715      -6.37689667
C       -6.41576011      -8.06588499      -6.27200453
H       -2.10848328      -0.25740545      -3.28290359
H       -3.53789862      -1.68230328      -4.70008688
H       -3.08840554      -4.92640717      -1.87702923
H       -1.66262179      -3.50081110      -0.47825571
H       -4.89375550      -6.05146103      -3.35561980
H       -3.24150477      -6.07703020      -3.92302939
H       -4.22115755      -7.02360682      -7.46050319
H       -0.29723938      -5.10398175      -7.82785490
H        1.17143229      -6.13846048      -9.52495595
H       -1.11739922      -9.78508478      -9.28563001
H       -2.57431856      -8.77092172      -7.58849030
H       -6.95971438      -5.23990269      -4.45631007
H       -9.26085749      -6.04112923      -4.61351505
H       -9.79411346      -8.11673192      -5.86390640
H       -7.96674545      -9.41497885      -6.92589126
H       -5.64264207      -8.67576717      -6.73178619
C        0.96980481      -8.62947869     -10.50453705
C        1.68904942      -9.13713913     -11.32879676
Br       2.85200711      -9.95798312     -12.66155501
C       -1.79184110       1.79184110       1.79184110
C       -3.12839346       1.98829522       1.45395265
C       -3.93079297       2.79859425       2.25999081
C       -3.40227378       3.40690083       3.40874488
C       -2.05535112       3.20704351       3.73620679
C       -1.25189878       2.39720247       2.92644248
C       -4.30310970       4.27731526       4.21951940
O       -5.28169581       4.77514060       3.66029316
C       -3.93441151       4.57200933       5.67478541
C       -5.15924434       4.89729238       6.51100378
C       -5.97013881       3.95821749       7.04603219
C       -5.78203204       2.48472486       6.92033215
O       -5.10483903       1.96938514       6.03663169
C       -6.48326028       1.62484723       7.91230996
C       -6.90181798       0.34884772       7.51502952
C       -7.55087799      -0.49497177       8.42207219
C       -7.76879107      -0.06570140       9.72956836
C       -7.34080529       1.19539678      10.14239433
C       -6.69311990       2.04100243       9.23625479
C       -5.47205538       6.34018004       6.74510931
C       -5.23424999       7.30919377       5.75680536
C       -5.52418760       8.65985477       5.97876129
C       -6.06124040       9.07034471       7.19389255
C       -6.29628254       8.13250562       8.19231068
C       -5.99452851       6.78444750       7.97467362
H       -3.55657104       1.52125421       0.57096708
H       -4.97498252       2.95182408       1.99348218
H       -1.60697438       3.67924203       4.60562553
H       -0.20716630       2.24886819       3.18565411
H       -3.21428579       5.39875342       5.68779712
H       -3.41176306       3.71590422       6.11389707
H       -6.85998136       4.25028177       7.59500443
H       -6.72456694       0.00878622       6.49572287
H       -7.87517268      -1.48055526       8.09736673
H       -7.49696135       1.52466965      11.16648302
H       -6.34038618       3.00693738       9.58640702
H       -4.84396939       7.03018781       4.78176993
H       -5.33780609       9.38604423       5.19165145
H       -6.29724439      10.11796989       7.35953751
H       -6.71630955       8.44709026       9.14421576
H       -6.17152640       6.08837992       8.79028911
C       -8.43350957      -0.93492364      10.66562499
C       -8.99021131      -1.66289726      11.44957242
Br      -9.89035095      -2.83996905      12.71714911
C        1.79184110      -1.79184110       1.79184110
C        2.66560952      -2.70219283       1.20283897
C        3.46736486      -3.50996847       2.01204470
C        3.40399503      -3.40410226       3.40982220
C        2.51770916      -2.48911538       3.99177689
C        1.71314856      -1.68234032       3.18005486
C        4.27053745      -4.30737464       4.22203226
O        4.65178379      -5.35931820       3.70602759
C        4.58197959      -3.92813772       5.67108894
C        5.89260972      -4.53294002       6.14199076
C        7.10258898      -3.99154025       5.88025925
C        7.33577851      -2.72950222       5.12180832
O        6.50947761      -2.24798181       4.35339644
C        8.65261721      -2.06102977       5.30677048
C        9.19228931      -1.33707449       4.23633140
C       10.42035497      -0.68239894       4.37522450
C       11.10083601      -0.74223749       5.58958454
C       10.56547750      -1.44467368       6.66844523
C        9.33843324      -2.10120508       6.53073880
C        5.82350069      -5.79717632       6.93666772
C        4.85557093      -6.77819434       6.66648384
C        4.78987699      -7.95937456       7.41355212
C        5.69333288      -8.18622809       8.44591668
C        6.65439975      -7.22638197       8.74031712
C        6.71169215      -6.04030988       8.00164760
H        2.73215782      -2.79460887       0.12202564
H        4.14885408      -4.22175032       1.54968437
H        2.42645327      -2.39529282       5.07009585
H        1.02619557      -0.97653413       3.63895890
H        3.74568713      -4.25447922       6.30066998
H        4.62586556      -2.83916908       5.77652972
H        8.00949263      -4.49449459       6.20128034
H        8.65739309      -1.28242338       3.28925956
H       10.82938981      -0.12912881       3.53346553
H       11.08865583      -1.47881455       7.62064364
H        8.92434167      -2.61685427       7.39253464
H        4.14866685      -6.65716902       5.85009127
H        4.03532837      -8.70474880       7.17542460
H        5.64835285      -9.10975487       9.01664405
H        7.36370645      -7.39802977       9.54587934
H        7.46315815      -5.30644598       8.28059131
C       12.36351251      -0.06545681       5.73524161
C       13.42100407       0.50134700       5.85722940
Br      15.13087850       1.41782084       6.05447335
C       -0.00445707       0.01189536      -1.78238275
H       -0.66409135       0.67374010      -2.43557963
H        0.65740317      -0.63156657      -2.45157240
C       -0.90989263      -0.90692880      -0.91072765
C        0.90977584       0.90977584      -0.90977584
C       -0.00465871       1.77757030       0.00794375
H       -0.66225468       2.44313916      -0.64384735
H        0.64322798       2.43503045       0.67728295
C       -1.78241447       0.00034974      -0.00472694
H       -2.45427497      -0.65498947       0.64260836
H       -2.43311707       0.67328779      -0.65473579
C       -0.91132561       0.90220522       0.91563759
C       -0.01476271      -0.02253852       1.78660255
H       -0.67934791      -0.69751639       2.42135241
H        0.63392994       0.61504881       2.47327442
C        0.01484550      -1.77751727      -0.01636693
H        0.67870853      -2.42144646      -0.68295456
H       -0.62264859      -2.45592969       0.64226336
C        1.78714474       0.01002794       0.00389507
H        2.44202412       0.67113390       0.66197326
H        2.45385902      -0.65136977      -0.64189061
C        0.91606151      -0.90478549       0.90901405
