130
Properties=species:S:1:pos:R:3 pbc="F F F"
C        1.82804475       1.82804475      -1.82804475
C        1.53103331       1.58168940      -3.26338079
N        2.33433753       0.75100882      -3.95055989
O        1.96911256       0.70156199      -5.32045674
C        2.82012356      -0.05000343      -6.09108192
O        3.78071173      -0.72321540      -5.73371069
C        2.39610586       0.07802315      -7.52586359
C        0.28049401       2.16762586      -3.84135911
N        0.11837916       3.41932681      -4.16538975
O        1.33656539       4.11753485      -4.11204945
C        1.19876921       5.35410715      -4.68466155
O        0.17449847       5.90088654      -5.07734227
C        2.55307498       5.99367823      -4.78420940
C       -0.91333605       1.23921966      -3.89363738
H        2.86107753       1.58908282      -1.55709203
H        1.61638793       2.85937221      -1.53420942
H        1.39940004      -0.34880053      -7.66013905
H        3.10077584      -0.46676123      -8.16122616
H        2.40909914       1.13005088      -7.82376091
H        3.15217051       5.47596022      -5.53722829
H        3.05180025       5.97308474      -3.81194076
H        2.43539172       7.03957468      -5.08370585
H       -1.65852691       1.55599483      -3.15868199
H       -0.64197278       0.19493328      -3.72764842
C       -1.54082524       1.30876503      -5.18786332
C       -2.06634744       1.36700928      -6.27177753
Br      -2.91607238       1.46118529      -8.02437515
C       -1.82804475      -1.82804475      -1.82804475
C       -1.74724374      -3.24432948      -1.38453028
N       -0.91923184      -4.07525149      -2.04142290
O       -1.03336687      -5.40290968      -1.55485473
C       -0.28762927      -6.31423189      -2.25934089
O        0.49806734      -6.11073401      -3.17854034
C       -0.58909297      -7.68508798      -1.72581165
C       -2.49287203      -3.64641609      -0.15019086
N       -3.77921598      -3.84281622      -0.08106352
O       -4.35998476      -3.84564176      -1.36052317
C       -5.65302046      -4.29217655      -1.29234090
O       -6.32229902      -4.53563069      -0.29479758
C       -6.17840318      -4.46476471      -2.68779473
C       -1.68161879      -3.66498372       1.12708152
H       -1.47488250      -1.67923619      -2.85313370
H       -2.84100444      -1.42630271      -1.74266241
H       -0.26582113      -7.76002402      -0.68489342
H       -0.04821661      -8.43020149      -2.31682266
H       -1.65964620      -7.88979873      -1.81346601
H       -5.68486185      -5.31406096      -3.16643621
H       -6.02125322      -3.55028831      -3.26528422
H       -7.25444742      -4.65907622      -2.64514863
H       -1.99040893      -2.83715712       1.77141614
H       -0.60653568      -3.61763647       0.94356323
C       -1.92940536      -4.88208500       1.85568725
C       -2.13692661      -5.90140731       2.46589455
Br      -2.47247092      -7.54956528       3.45254814
C       -1.82804475       1.82804475       1.82804475
C       -1.19188133       2.02784267       3.15637950
N       -1.59531235       1.25827489       4.18231899
O       -0.95908420       1.64090118       5.39114591
C       -1.41109451       0.95795806       6.49214948
O       -2.21625581       0.03436336       6.54058784
C       -0.75215748       1.53692343       7.71091170
C       -0.04547298       2.98517230       3.25883370
N       -0.15092373       4.28395033       3.26822167
O       -1.49291541       4.68163600       3.39159828
C       -1.56685621       6.02561061       3.64507109
O       -0.66161862       6.85193171       3.63917696
C       -2.99108147       6.37987669       3.96000446
C        1.33296771       2.36491002       3.18757869
H       -2.79657989       1.32212569       1.88854682
H       -1.95524958       2.76868986       1.28603013
H        0.32683942       1.37141067       7.66616732
H       -1.14709428       1.04392122       8.60422527
H       -0.97650582       2.60479192       7.78161319
H       -3.26942599       5.96439260       4.93154042
H       -3.65434569       6.00702709       3.17545297
H       -3.09013342       7.46894427       3.99959457
H        1.80500511       2.62505870       2.23609632
H        1.31365017       1.28071288       3.31354621
C        2.17059261       2.89360695       4.23278876
C        2.87210346       3.33639063       5.10815219
Br       4.00638717       4.05233439       6.52354083
C        1.82804475      -1.82804475       1.82804475
C        2.43664807      -2.91802888       1.02142655
N        1.85900050      -4.13182742       1.04507831
O        2.61543733      -5.07398384       0.30171012
C        2.12876427      -6.35472852       0.37770925
O        1.10872494      -6.75266024       0.92982183
C        3.07943328      -7.26527990      -0.34472058
C        3.58565266      -2.58095246       0.12287386
N        4.81089852      -2.37591964       0.51627756
O        4.97346398      -2.72513533       1.86755038
C        6.30301670      -2.73818086       2.19634036
O        7.25797251      -2.37609288       1.51866190
C        6.45238153      -3.29722725       3.58135383
C        3.22865139      -2.31411002      -1.32324042
H        1.18036867      -2.19802243       2.62886129
H        2.58178517      -1.16605974       2.26212465
H        3.10860922      -7.00834020      -1.40621085
H        2.73786203      -8.29962163      -0.24224289
H        4.07589874      -7.18813475       0.09887745
H        6.22404420      -4.36578375       3.57553106
H        5.79646748      -2.76527486       4.27508340
H        7.48502913      -3.15805045       3.91559267
H        3.34841506      -1.24930830      -1.54157345
H        2.21648881      -2.63758758      -1.57346747
C        4.12464446      -3.02736318      -2.19620454
C        4.87503865      -3.62471270      -2.92731199
Br       6.08836259      -4.59057636      -4.10945090
C       -0.00445707       0.01189536      -1.78238275
H       -0.66409135       0.67374010      -2.43557963
H        0.65740317      -0.63156657      -2.45157240
C       -0.90989263      -0.90692880      -0.91072765
C        0.90977584       0.90977584      -0.90977584
C       -0.00465871       1.77757030       0.00794375
H       -0.66225468       2.44313916      -0.64384735
H        0.64322798       2.43503045       0.67728295
C       -1.78241447       0.00034974      -0.00472694
H       -2.45427497      -0.65498947       0.64260836
H       -2.43311707       0.67328779      -0.65473579
C       -0.91132561       0.90220522       0.91563759
C       -0.01476271      -0.02253852       1.78660255
H       -0.67934791      -0.69751639       2.42135241
H        0.63392994       0.61504881       2.47327442
C        0.01484550      -1.77751727      -0.01636693
H        0.67870853      -2.42144646      -0.68295456
H       -0.62264859      -2.45592969       0.64226336
C        1.78714474       0.01002794       0.00389507
H        2.44202412       0.67113390       0.66197326
H        2.45385902      -0.65136977      -0.64189061
C        0.91606151      -0.90478549       0.90901405
