190
Properties=species:S:1:pos:R:3 pbc="F F F"
N        4.86998177       0.89676528      -9.42613410
C        5.11643901       1.98569312      -9.14628284
C        5.41750606       3.31586091      -8.80443726
C        5.59407011       3.66490313      -7.51858525
S        5.30850463       2.61576053      -6.17371470
C        5.50110767       3.93274153      -4.93908648
C        4.18506943       4.28074361      -4.31429096
H        3.81509768       5.29609678      -4.43441103
C        3.40545767       3.40131379      -3.43420140
C        2.16300769       3.86141309      -2.97150310
C        1.35848707       3.06265628      -2.15363712
C        1.79144702       1.79144702      -1.79144702
C        3.02452400       1.31993106      -2.23029080
C        3.83148901       2.12619059      -3.04178480
C        6.04175084       5.13666726      -5.72108003
O        6.37161804       6.19240222      -5.17930750
N        6.03041288       4.90500329      -7.10685688
C        6.53874039       5.79725995      -8.05721561
C        6.37505882       5.54059082      -9.38397388
C        6.97388747       6.38377620     -10.33648475
N        7.46412293       7.07403671     -11.11625263
C        5.59806120       4.34412192      -9.88726082
H        6.20184923       3.87790041     -10.68096903
C        4.24801070       4.77040042     -10.47331897
C        3.94279240       4.49432915     -11.81585121
C        2.71574915       4.88165520     -12.36187217
C        1.78193000       5.54763010     -11.57094177
Br       0.12455001       6.07369066     -12.31205292
C        2.06200852       5.82883688     -10.23721693
C        3.28691059       5.44218504      -9.69052438
N        7.23096866       6.91355229      -7.62061052
H        6.24745992       3.64348856      -4.19286948
H        1.79901164       4.84916717      -3.24822758
H        0.39871016       3.44020576      -1.81218335
H        3.36909389       0.32616687      -1.95319011
H        4.78737261       1.72294532      -3.36179776
H        4.65553676       3.97568307     -12.45509775
H        2.49815594       4.66058274     -13.40303030
H        1.33559089       6.34822251      -9.61664882
H        3.47622196       5.67751951      -8.64600025
H        7.04475815       7.14859030      -6.63891474
H        7.23180611       7.73077989      -8.22683317
N       -4.59701989      -9.54670603      -1.04915524
C       -5.15919053      -9.12739877      -1.96182567
C       -5.84590276      -8.61520713      -3.07669434
C       -5.29286130      -7.65163432      -3.83306286
S       -3.82039791      -6.83103685      -3.44654510
C       -4.00940205      -5.59799833      -4.76553531
C       -4.33172867      -4.24950907      -4.19886626
H       -5.27565293      -3.78925883      -4.48069373
C       -3.41923944      -3.42811376      -3.39361966
C       -3.89558312      -2.20619494      -2.89414581
C       -3.08750922      -1.38989851      -2.09737274
C       -1.79144702      -1.79144702      -1.79144702
C       -1.29572541      -2.99393066      -2.28508979
C       -2.10482300      -3.80448266      -3.09015875
C       -5.18305541      -6.10038047      -5.61606226
O       -5.53976293      -5.54675210      -6.65681272
N       -5.82758053      -7.19645139      -5.01824112
C       -6.87957079      -7.90666500      -5.60698016
C       -7.52082929      -8.87786750      -4.90092673
C       -8.50809552      -9.65879885      -5.52725404
N       -9.31630678     -10.29811139      -6.03999409
C       -7.18362630      -9.18688965      -3.45892800
H       -7.10586511     -10.28164978      -3.37320379
C       -8.28501460      -8.69010542      -2.51661007
C       -8.96747205      -9.59636441      -1.68913630
C       -9.97625901      -9.15478099      -0.82823652
C      -10.31169661      -7.80319820      -0.78560705
Br     -11.67852878      -7.20846320       0.37669840
C       -9.64643727      -6.88704524      -1.59457982
C       -8.63845701      -7.32665495      -2.45450806
N       -7.22420373      -7.62359870      -6.91732904
H       -3.11325479      -5.57730140      -5.39326176
H       -4.90891717      -1.87452921      -3.11296002
H       -3.48124249      -0.45057618      -1.71928060
H       -0.28407579      -3.31589528      -2.04847980
H       -1.68075221      -4.73404504      -3.45731844
H       -8.72463841     -10.65770607      -1.70397310
H      -10.49409430      -9.87108779      -0.19658688
H       -9.90524566      -5.83128598      -1.56393058
H       -8.13847394      -6.58660394      -3.07466384
H       -6.88375370      -6.71003315      -7.23847633
H       -8.18494115      -7.80581715      -7.19866087
N       -2.33015202       2.88042063       9.98230850
C       -3.00424286       3.70267751       9.54149460
C       -3.82767913       4.70709510       9.00303000
C       -4.43342740       4.52734751       7.81678358
S       -4.14772301       3.18211896       6.76813789
C       -5.09384519       3.88947931       5.38961118
C       -4.18597116       4.31661493       4.27751791
H       -4.17732912       5.36796307       4.00031329
C       -3.39675819       3.41178090       3.43243377
C       -2.55363110       3.97822765       2.46406512
C       -1.75449367       3.17423534       1.64605145
C       -1.79144702       1.79144702       1.79144702
C       -2.62813785       1.20871440       2.73789361
C       -3.43371374       2.01662832       3.54912235
C       -5.80580089       5.11298386       5.98071338
O       -6.60957502       5.79257626       5.34117647
N       -5.36499822       5.39193339       7.28534144
C       -5.89624184       6.40135212       8.09562199
C       -5.32413403       6.67550392       9.29998557
C       -5.91930297       7.61858290      10.15626254
N       -6.40653866       8.39061970      10.85725391
C       -4.07742539       5.96823977       9.78377878
H       -4.25876514       5.67320358      10.82874995
C       -2.86090055       6.89842362       9.73240592
C       -2.15033623       7.19628785      10.90634868
C       -1.04124382       8.04629467      10.87173804
C       -0.63139002       8.60574103       9.66337082
Br       0.86656572       9.75772439       9.61913491
C       -1.31885110       8.32193282       8.48727842
C       -2.42641723       7.47283913       8.52036365
N       -7.02159410       7.08100510       7.66253227
H       -5.85410189       3.17909723       5.05061884
H       -2.50122477       5.05798903       2.33719260
H       -1.10690594       3.63736343       0.90682989
H       -2.66101002       0.12829846       2.85914240
H       -4.07420162       1.52379548       4.27411859
H       -2.45057346       6.77241056      11.86333357
H       -0.50498622       8.26618290      11.79059986
H       -1.00182692       8.75646388       7.54217143
H       -2.94300169       7.27177151       7.58496852
H       -7.18345442       6.99636626       6.65244251
H       -7.15553219       8.03025808       8.00362889
N        3.61830066      -9.86744699       1.70713350
C        4.33107382      -9.42318386       2.49415728
C        5.20175274      -8.88050673       3.45554475
C        4.85488953      -7.77920268       4.14346628
S        3.44478636      -6.83081728       3.82237622
C        3.92860568      -5.49351315       4.95081685
C        4.32436899      -4.26517726       4.19055775
H        5.34048024      -3.89659754       4.30852771
C        3.41511321      -3.43079709       3.39506256
C        3.95720717      -2.33891118       2.69980552
C        3.15142494      -1.52149002       1.90186552
C        1.79144702      -1.79144702       1.79144702
C        1.23164953      -2.86241555       2.48068078
C        2.04009183      -3.67338870       3.28598389
C        5.13595459      -6.04044217       5.72310138
O        5.67654826      -5.42437251       6.64240698
N        5.57806964      -7.26634231       5.19786110
C        6.61043090      -8.03193925       5.75084580
C        7.04966596      -9.14612350       5.10383405
C        8.01507476      -9.96938695       5.70968669
N        8.80539195     -10.64335318       6.20566713
C        6.50567883      -9.56725651       3.75650861
H        6.29858052     -10.64686388       3.81527427
C        7.53036363      -9.31603967       2.64532679
C        8.00239261     -10.38453306       1.86604708
C        8.93972436     -10.16744706       0.85210510
C        9.41328690      -8.88030746       0.60690750
Br      10.68342190      -8.58924670      -0.76237501
C        8.95702591      -7.80619836       1.36483806
C        8.02058627      -8.02154331       2.37749043
N        7.14269403      -7.65173405       6.97070340
H        3.12426800      -5.29403241       5.66551755
H        5.01994411      -2.11260367       2.76385862
H        3.59604811      -0.68487829       1.37017286
H        0.16944465      -3.08131007       2.39769616
H        1.56526799      -4.49783495       3.80901275
H        7.64851900     -11.39984365       2.03795494
H        9.29428846     -11.00687618       0.26060434
H        9.32409776      -6.80009197       1.17627251
H        7.68481439      -7.16215101       2.95277633
H        6.94645056      -6.67357565       7.21223698
H        8.10499623      -7.91896717       7.16545577
C       -0.00445707       0.01189536      -1.78238275
H       -0.66409135       0.67374010      -2.43557963
H        0.65740317      -0.63156657      -2.45157240
C       -0.90989263      -0.90692880      -0.91072765
C        0.90977584       0.90977584      -0.90977584
C       -0.00465871       1.77757030       0.00794375
H       -0.66225468       2.44313916      -0.64384735
H        0.64322798       2.43503045       0.67728295
C       -1.78241447       0.00034974      -0.00472694
H       -2.45427497      -0.65498947       0.64260836
H       -2.43311707       0.67328779      -0.65473579
C       -0.91132561       0.90220522       0.91563759
C       -0.01476271      -0.02253852       1.78660255
H       -0.67934791      -0.69751639       2.42135241
H        0.63392994       0.61504881       2.47327442
C        0.01484550      -1.77751727      -0.01636693
H        0.67870853      -2.42144646      -0.68295456
H       -0.62264859      -2.45592969       0.64226336
C        1.78714474       0.01002794       0.00389507
H        2.44202412       0.67113390       0.66197326
H        2.45385902      -0.65136977      -0.64189061
C        0.91606151      -0.90478549       0.90901405
