149
Properties=species:S:1:pos:R:3 pbc="F F F"
C        0.00000000       0.00000000       0.00000000
C        0.88258708       0.88258708      -0.88258708
C        1.45669706       2.03672872      -0.35398673
C        2.26200845       2.84436982      -1.16444655
C        2.50483806       2.50572303      -2.50232622
C        3.34345961       3.39398026      -3.33001738
H        3.55640203       4.37296963      -2.91274809
N        3.76911817       2.96472506      -4.52727318
N        4.42807320       4.02126727      -5.27195573
C        4.79183407       3.89074940      -6.57197004
S        5.00301094       2.35922098      -7.35242083
C        5.36976049       3.15181931      -8.82071334
C        5.31609603       4.51663420      -8.64526836
N        5.03088300       4.92900285      -7.35206266
C        5.55596974       5.52146859      -9.64880633
C        6.00520787       6.74663411      -9.31287251
C        6.24504947       7.78246719     -10.30214351
C        6.73319675       9.04676208      -9.96348146
C        6.93530910      10.00096917     -10.96590291
Br       7.60178681      11.71139778     -10.51110999
C        6.65253451       9.70821342     -12.30186848
C        6.16690584       8.44568108     -12.64076583
C        5.97483633       7.50389559     -11.63448978
O        5.49704469       6.24127394     -12.01319555
C        5.28181854       5.21637893     -11.09007428
O        4.88647707       4.12655658     -11.49372470
C        1.91320219       1.33926847      -3.01152468
C        1.10579509       0.52855885      -2.20940890
H        1.28868003       2.31998234       0.67970982
H        2.70972113       3.74266391      -0.74832240
H        4.23741490       4.95964964      -4.94561320
H        5.58959516       2.57726315      -9.70745358
H        6.19742384       6.98907365      -8.26925352
H        6.95400215       9.28789159      -8.92685827
H        6.80606277      10.45078890     -13.08007435
H        5.94150931       8.19941773     -13.67407112
H        2.08412392       1.06507504      -4.05081777
H        0.66451375      -0.36552751      -2.63735721
C       -0.88258708      -0.88258708      -0.88258708
C       -1.00478155      -2.24158234      -0.60104862
C       -1.81108129      -3.04791395      -1.41182957
C       -2.50390578      -2.50622024      -2.50276129
C       -3.32827719      -3.39343249      -3.34574757
H       -3.18619804      -4.45904471      -3.19687701
N       -4.17012789      -2.85230482      -4.23868370
N       -4.76565974      -3.86189819      -5.09373827
C       -5.51352004      -3.55757631      -6.18345715
S       -6.27931963      -2.02143607      -6.41389704
C       -6.87369854      -2.53894868      -7.92964592
C       -6.46858358      -3.83146931      -8.17794571
N       -5.73300956      -4.41936619      -7.15957275
C       -6.76168618      -4.61267674      -9.35188174
C       -6.80834380      -5.95827230      -9.29809839
C       -7.09033898      -6.77147298     -10.46784821
C       -7.16366883      -8.16545242     -10.41431904
C       -7.43260098      -8.88877576     -11.58080443
Br      -7.53844553     -10.77567877     -11.51017029
C       -7.62587831      -8.23633088     -12.80040721
C       -7.55456704      -6.84467533     -12.85411039
C       -7.29108014      -6.13670093     -11.68544063
O       -7.23872909      -4.73839357     -11.77439152
C       -6.99655214      -3.92784249     -10.66387712
O       -6.98970362      -2.70880553     -10.80824920
C       -2.36247569      -1.13496439      -2.76655525
C       -1.55735270      -0.32330817      -1.96310196
H       -0.48289826      -2.68594174       0.23988745
H       -1.90562054      -4.10695187      -1.18813503
H       -4.28392036      -4.75136560      -5.10739178
H       -7.46560598      -1.87158666      -8.53711926
H       -6.62763062      -6.47233260      -8.35578779
H       -7.01188097      -8.68510554      -9.47176550
H       -7.83111649      -8.79855074     -13.70725878
H       -7.70225728      -6.31964293     -13.79309794
H       -2.88668120      -0.69863452      -3.61470101
H       -1.47131840       0.73256681      -2.19759185
C       -0.88258708       0.88258708       0.88258708
C       -1.61056357       0.31223740       1.92461154
C       -2.41973209       1.12165064       2.72944208
C       -2.50479231       2.50233863       2.50575637
C       -3.38479801       3.31880083       3.36385840
H       -4.08035206       2.77058222       3.99118547
N       -3.29494985       4.65593154       3.31023503
N       -4.34400032       5.29476763       4.08252825
C       -4.57548247       6.63067375       4.04839729
S       -3.39640395       7.78834919       3.52989960
C       -4.52246722       9.05061347       3.76921244
C       -5.71592791       8.53678007       4.22529062
N       -5.72337798       7.16416468       4.42440584
C       -6.90883734       9.28172629       4.53568102
C       -7.79725310       8.82662831       5.44083309
C       -9.01349940       9.55096674       5.76519402
C       -9.92694250       9.09690715       6.71959065
C      -11.08279861       9.84054473       6.97883783
Br     -12.31821305       9.23137949       8.27470204
C      -11.33841885      11.03042506       6.29377250
C      -10.42603547      11.48511580       5.34220147
C       -9.27768253      10.73831272       5.09722645
O       -8.37674997      11.23183134       4.14293287
C       -7.18674380      10.57320179       3.82832616
O       -6.43087114      11.07467687       3.00121035
C       -1.76339006       3.05217392       1.44843136
C       -0.95477303       2.25038644       0.63860337
H       -1.55963204      -0.75322853       2.12254904
H       -2.98452748       0.67375788       3.54242209
H       -5.13288680       4.70264052       4.30715042
H       -4.24635730      10.07192074       3.55603386
H       -7.61712281       7.88403980       5.95458839
H       -9.74094295       8.17066429       7.25714478
H      -12.23820674      11.60614473       6.49257454
H      -10.60738159      12.40805766       4.79955890
H       -1.82372731       4.12147242       1.25481699
H       -0.39621329       2.71015645      -0.17002630
C        0.88258708      -0.88258708       0.88258708
C        0.99640666      -0.60739737       2.24360848
C        1.80687587      -1.41501757       3.04893137
C        2.50352901      -2.50304691       2.50631139
C        3.36379859      -3.31881985       3.38483880
H        3.57321109      -2.90349394       4.36541472
N        3.84334553      -4.48640767       2.93136322
N        4.80247054      -5.06583310       3.85299256
C        5.55596220      -6.15128301       3.54730829
S        5.14279068      -7.27546577       2.29639629
C        6.56972737      -8.16007741       2.61248836
C        7.27414294      -7.56727517       3.63658049
N        6.66813735      -6.45068024       4.19313091
C        8.52955323      -8.01171441       4.18497701
C        8.86779844      -7.73688720       5.46002885
C       10.13129565      -8.16258958       6.03577494
C       10.47812095      -7.90173166       7.36358768
C       11.71489405      -8.33452567       7.85276145
Br      12.18457377      -7.98807893       9.65164189
C       12.61037707      -9.02180725       7.03043209
C       12.26394843      -9.28406869       5.70533562
C       11.02847194      -8.85223528       5.23251447
O       10.70853567      -9.14403455       3.89894396
C        9.49187041      -8.77225070       3.32415064
O        9.26627509      -9.08244821       2.15803505
C        2.37392451      -2.75787625       1.13219458
C        1.56841598      -1.95471522       0.32063164
H        0.46460236       0.22601787       2.69036806
H        1.89173770      -1.19865920       4.11031055
H        5.18685676      -4.42290260       4.53291837
H        6.80300796      -9.03941507       2.03188887
H        8.18591237      -7.17450083       6.09533781
H        9.79116999      -7.36486933       8.01271271
H       13.57270138      -9.35473438       7.40949025
H       12.94691560      -9.81727877       5.05080378
H        2.91427907      -3.59377989       0.69195777
H        1.49260268      -2.18145687      -0.73771611
