170
Properties=species:S:1:pos:R:3 pbc="F F F"
C        1.79249111       1.79249111      -1.79249111
C        2.36660109       2.94663274      -1.26389076
C        3.17191247       3.75427384      -2.07435057
C        3.41474209       3.41562706      -3.41223024
C        4.25336363       4.30388428      -4.23992140
H        4.46630605       5.28287366      -3.82265212
N        4.67902220       3.87462909      -5.43717721
N        5.33797722       4.93117129      -6.18185976
C        5.70173810       4.80065342      -7.48187406
S        5.91291496       3.26912500      -8.26232485
C        6.27966451       4.06172334      -9.73061736
C        6.22600006       5.42653823      -9.55517239
N        5.94078702       5.83890687      -8.26196668
C        6.46587376       6.43137261     -10.55871036
C        6.91511189       7.65653814     -10.22277654
C        7.15495349       8.69237122     -11.21204753
C        7.64310078       9.95666611     -10.87338548
C        7.84521312      10.91087319     -11.87580693
Br       8.51169084      12.62130181     -11.42101402
C        7.56243854      10.61811744     -13.21177250
C        7.07680987       9.35558511     -13.55066985
C        6.88474035       8.41379961     -12.54439380
O        6.40694871       7.15117796     -12.92309958
C        6.19172256       6.12628296     -11.99997830
O        5.79638110       5.03646061     -12.40362872
C        2.82310621       2.24917250      -3.92142870
C        2.01569911       1.43846287      -3.11931292
H        2.19858405       3.22988637      -0.23019420
H        3.61962515       4.65256794      -1.65822643
H        5.14731893       5.86955366      -5.85551722
H        6.49949919       3.48716717     -10.61735761
H        7.10732786       7.89897768      -9.17915754
H        7.86390618      10.19779562      -9.83676230
H        7.71596679      11.36069292     -13.98997837
H        6.85141333       9.10932175     -14.58397514
H        2.99402794       1.97497907      -4.96072179
H        1.57441777       0.54437652      -3.54726123
C       -1.79249111      -1.79249111      -1.79249111
C       -2.60127352      -2.76591823      -1.20993283
C       -3.40626007      -3.57429891      -2.01997791
C       -3.41520989      -3.41522443      -3.41216506
C       -4.26287247      -4.30078301      -4.23351384
H       -4.67642238      -5.16750753      -3.72790192
N       -4.45561652      -4.00726296      -5.52794900
N       -5.16406065      -5.06870190      -6.21824572
C       -5.32829741      -5.09165653      -7.56431163
S       -5.19749535      -3.68326160      -8.56360786
C       -5.48363358      -4.63559912      -9.95277251
C       -5.66312167      -5.95245351      -9.59213550
N       -5.61803288      -6.19616974      -8.22745797
C       -5.91898259      -7.05831812     -10.47865602
C       -6.59084614      -8.14730453     -10.05627590
C       -6.85330661      -9.28134824     -10.92471739
C       -7.56962296     -10.40308865     -10.50044076
C       -7.78090467     -11.46419888     -11.38678969
Br      -8.75549377     -12.98148155     -10.81703134
C       -7.28239217     -11.41932789     -12.69060842
C       -6.56878091     -10.29901630     -13.11526761
C       -6.36974507      -9.24815208     -12.22503662
O       -5.65852722      -8.13280690     -12.68989214
C       -5.41309316      -7.01633907     -11.88855159
O       -4.80575934      -6.06312647     -12.36758462
C       -2.58994746      -2.42908956      -3.97467040
C       -1.78133484      -1.61925782      -3.17288225
H       -2.61686090      -2.90738685      -0.13441687
H       -4.03722785      -4.33110419      -1.56208747
H       -5.16410869      -5.96298058      -5.74530054
H       -5.49366820      -4.17950824     -10.93084753
H       -6.95428688      -8.19961442      -9.03156178
H       -7.95993582     -10.45140272      -9.48712555
H       -7.44338402     -12.24530472     -13.37794934
H       -6.17362538     -10.24577442     -14.12531042
H       -2.57785039      -2.29696574      -5.05491267
H       -1.15574452      -0.86753140      -3.64277960
C       -1.79249111       1.79249111       1.79249111
C       -1.85426117       1.55835601       3.16450741
C       -2.66479996       2.36581139       3.96992553
C       -3.41332949       3.41304212       3.41622777
C       -4.27157232       4.22945603       4.29614096
H       -4.43627815       3.83991053       5.29564315
N       -4.80299862       5.36592227       3.82190760
N       -5.75093049       5.94451657       4.75556121
C       -6.54867678       6.99509955       4.44048925
S       -6.21206125       8.09039175       3.14191180
C       -7.65638530       8.93935277       3.47626714
C       -8.30842567       8.35830687       4.54097814
N       -7.64907947       7.28013266       5.11244846
C       -9.55971914       8.78053550       5.11570209
C       -9.84840922       8.53687601       6.40914134
C      -11.10630720       8.94102330       7.01204173
C      -11.40235843       8.71276767       8.35802627
C      -12.63652374       9.12202094       8.87334856
Br     -13.03764320       8.81974159      10.69662187
C      -13.57944488       9.75352296       8.05936065
C      -13.28374992       9.98325668       6.71605822
C      -12.05039500       9.57545513       6.21708364
O      -11.78239543       9.83358378       4.86524705
C      -10.57300861       9.48185224       4.26312297
O      -10.39456663       9.76084057       3.08106322
C       -3.33554047       3.62690923       2.03125772
C       -2.53029956       2.82354844       1.21962690
H       -1.28173606       0.75714880       3.61977976
H       -2.70901832       2.18159394       5.03980725
H       -6.09250115       5.31227764       5.46761102
H       -7.93641588       9.79149567       2.87611242
H       -9.12883963       8.01730200       7.03932145
H      -10.67812504       8.21930163       9.00103743
H      -14.53966474      10.06808615       8.45888720
H      -14.00405524      10.47302374       6.06763125
H       -3.91648224       4.43054499       1.58270157
H       -2.49536319       3.01795166       0.15274068
C        1.79249111      -1.79249111       1.79249111
C        1.91095182      -1.51377445       3.15239831
C        2.72141449      -2.32140924       3.95771315
C        3.41344230      -3.41294306       3.41621402
C        4.27388964      -4.22866469       4.29461499
H        4.48725929      -3.81116110       5.27341143
N        4.74884084      -5.39888780       3.84309985
N        5.70893412      -5.97842240       4.76365175
C        6.45847982      -7.06686753       4.45891823
S        6.03857912      -8.19340907       3.21237662
C        7.46389774      -9.08116920       3.52693827
C        8.17289233      -8.48747257       4.54734578
N        7.57163174      -7.36759125       5.10243759
C        9.42859118      -8.93391945       5.09344609
C        9.77123069      -8.65644564       6.36675025
C       11.03514705      -9.08410135       6.94012384
C       11.38647680      -8.82047174       8.26620383
C       12.62340346      -9.25538820       8.75310158
Br      13.09916598      -8.90518586      10.54965482
C       13.51459989      -9.94753354       7.93019505
C       13.16367055     -10.21256011       6.60683417
C       11.92808417      -9.77856162       6.13628797
O       11.60353932     -10.07322496       4.80446197
C       10.38630462      -9.69961758       4.23206162
O       10.15652320     -10.01247282       3.06747440
C        3.27921724      -3.67129177       2.04319840
C        2.47368488      -2.86814786       1.23164217
H        1.38277879      -0.67759191       3.59829393
H        2.80990066      -2.10228936       5.01822949
H        6.09706692      -5.33466366       5.44065922
H        7.69303960      -9.96280527       2.94817910
H        9.09274514      -8.09033013       7.00238781
H       10.70289338      -8.27982658       8.91574414
H       14.47705009     -10.28211660       8.30747140
H       13.84326519     -10.74955703       5.95188800
H        3.81595195      -4.50996849       1.60380836
H        2.39422639      -3.09766804       0.17416110
C       -0.00445707       0.01189536      -1.78238275
H       -0.66409135       0.67374010      -2.43557963
H        0.65740317      -0.63156657      -2.45157240
C       -0.90989263      -0.90692880      -0.91072765
C        0.90977584       0.90977584      -0.90977584
C       -0.00465871       1.77757030       0.00794375
H       -0.66225468       2.44313916      -0.64384735
H        0.64322798       2.43503045       0.67728295
C       -1.78241447       0.00034974      -0.00472694
H       -2.45427497      -0.65498947       0.64260836
H       -2.43311707       0.67328779      -0.65473579
C       -0.91132561       0.90220522       0.91563759
C       -0.01476271      -0.02253852       1.78660255
H       -0.67934791      -0.69751639       2.42135241
H        0.63392994       0.61504881       2.47327442
C        0.01484550      -1.77751727      -0.01636693
H        0.67870853      -2.42144646      -0.68295456
H       -0.62264859      -2.45592969       0.64226336
C        1.78714474       0.01002794       0.00389507
H        2.44202412       0.67113390       0.66197326
H        2.45385902      -0.65136977      -0.64189061
C        0.91606151      -0.90478549       0.90901405
