146
Properties=species:S:1:pos:R:3 pbc="F F F"
C        1.82611129       1.82611129      -1.82611129
C        1.09054510       2.19524449      -3.09877981
C        1.97848453       3.06839190      -3.98492063
N        1.38029659       3.32724487      -5.28081472
C        0.43785057       4.40290637      -5.44730057
N        1.05424317       5.67146043      -5.17510627
H        1.78863181       5.80933884      -5.87697203
S       -0.10047945       4.37121275      -7.17696006
C        0.64160902       2.83406379      -7.47222514
C        0.45375116       2.17144818      -8.62345546
C        0.98466851       0.84631380      -8.94144659
C        2.23374992       0.70763940      -9.55553059
C        2.73169657      -0.56334626      -9.85402046
C        1.97859552      -1.69300325      -9.53637986
Br       2.65235511      -3.41439482      -9.93788215
C        0.73400802      -1.56570520      -8.92204139
C        0.23781396      -0.29465335      -8.62496328
C        1.44929258       2.38828838      -6.29543389
O        2.07087488       1.33380965      -6.23594984
H        2.73076712       1.24626680      -2.03017722
H        2.08348939       2.70473786      -1.22879820
H        0.16080920       2.72766674      -2.86349825
H        0.79657498       1.28678817      -3.63941757
H        2.93197553       2.55392069      -4.15640470
H        2.21256807       4.01550082      -3.48694734
H       -0.42939482       4.20360121      -4.80947857
H       -0.16118312       2.61041769      -9.40413999
H        2.83101183       1.58698016      -9.78432673
H        3.70821129      -0.65812112     -10.31896362
H        0.14894289      -2.44171922      -8.65870266
H       -0.72465803      -0.19666203      -8.12836899
C       -1.82611129      -1.82611129      -1.82611129
C       -3.26860353      -1.74828878      -1.36767710
C       -4.14773154      -2.63989306      -2.24417247
N       -5.51190760      -2.71903605      -1.75741254
C       -6.47207691      -1.70581757      -2.11016303
N       -6.69186374      -1.67953611      -3.52941001
H       -7.10337150      -2.58160207      -3.78996910
S       -8.02523060      -2.13866612      -1.28379664
C       -7.27196933      -3.36111313      -0.31481549
C       -7.93431660      -3.98517926       0.67084106
C       -7.36995537      -4.98229079       1.57981726
C       -7.41416990      -6.34344470       1.26069470
C       -6.87106698      -7.28743062       2.13612683
C       -6.28401491      -6.86683243       3.32887520
Br      -5.54640635      -8.14344441       4.51400831
C       -6.23255425      -5.51270338       3.65491342
C       -6.77629505      -4.57082039       2.77899155
C       -5.84692490      -3.56871043      -0.71737953
O       -5.08296750      -4.36832129      -0.18934556
H       -1.42460793      -2.84005277      -1.74255044
H       -1.69901222      -1.46719078      -2.85082245
H       -3.62894466      -0.71310329      -1.40992623
H       -3.34618145      -2.05855058      -0.31804870
H       -3.73724318      -3.65710371      -2.24795404
H       -4.14242995      -2.29034897      -3.28223731
H       -6.12293106      -0.74675131      -1.71400260
H       -8.97527540      -3.73913800       0.86103884
H       -7.85276426      -6.67062164       0.32106717
H       -6.90013254      -8.33983350       1.87091225
H       -5.76383559      -5.17722478       4.57513403
H       -6.71882685      -3.51308436       3.02486227
C       -1.82611129       1.82611129       1.82611129
C       -3.25386234       1.81288114       1.31782593
C       -4.13248767       2.70455836       2.19475104
N       -5.47585091       2.84637387       1.66613141
C       -6.48050975       1.85547997       1.95206780
N       -6.74946389       1.78980676       3.36153922
H       -7.13958375       2.69630953       3.63904940
S       -7.98932163       2.36829663       1.09007510
C       -7.16333766       3.59564057       0.18891972
C       -7.77057910       4.27425544      -0.79617974
C       -7.14278641       5.28099609      -1.65135361
C       -7.15284860       6.63156624      -1.28749494
C       -6.54919462       7.58485919      -2.11168304
C       -5.93591876       7.18410503      -3.29805164
Br      -5.11638460       8.47323692      -4.41377908
C       -5.91814975       5.84053264      -3.66833819
C       -6.52238810       4.88934586      -2.84361007
C       -5.74681143       3.74094317       0.64526025
O       -4.93921128       4.53098030       0.17044278
H       -1.38866970       2.82793414       1.79060730
H       -1.74607842       1.42935886       2.84158818
H       -3.64947782       0.78979667       1.31269969
H       -3.28518714       2.16016014       0.27743343
H       -3.68895078       3.70645060       2.24689955
H       -4.17426099       2.32089629       3.21985895
H       -6.14992796       0.89865944       1.53509757
H       -8.81199044       4.07039060      -1.02900647
H       -7.61226636       6.94229841      -0.35224605
H       -6.55249250       8.62829274      -1.81173146
H       -5.42958021       5.51983592      -4.58348979
H       -6.49155780       3.83897388      -3.12348275
C        1.82611129      -1.82611129       1.82611129
C        1.27355780      -1.87445734       3.23655427
C        2.16334372      -2.74824539       4.12020795
N        1.76469196      -2.70927786       5.51438637
C        0.71820830      -3.57175705       5.99809216
N        1.08743739      -4.95304281       5.86032967
H        1.90314061      -5.11092842       6.46087363
S        0.49448524      -3.19675176       7.75645636
C        1.49203429      -1.78303089       7.67283277
C        1.60265017      -0.93752480       8.70847984
C        2.36744497       0.30908277       8.71406670
C        3.70991347       0.31974185       9.10674829
C        4.43135494       1.51639274       9.10740856
C        3.80767490       2.69983690       8.71413413
Br       4.78367341       4.32025938       8.71242841
C        2.47119870       2.69945629       8.31860180
C        1.75169708       1.50264639       8.31907319
C        2.14244157      -1.65839001       6.33218327
O        2.89151437      -0.74601709       6.00310290
H        2.82701252      -1.38631252       1.79388610
H        1.84663324      -2.81332385       1.35706836
H        0.24977998      -2.26829948       3.23389472
H        1.21201954      -0.86016714       3.65059404
H        3.19672835      -2.38525527       4.06031730
H        2.16820496      -3.78372868       3.76308259
H       -0.20703589      -3.32193675       5.46878410
H        1.07321468      -1.14623757       9.63392231
H        4.20298843      -0.60604655       9.39328374
H        5.47629920       1.50923101       9.40198561
H        1.98360822       3.61488309       7.99720121
H        0.71454723       1.49965900       7.99216071
C       -0.00445707       0.01189536      -1.78238275
H       -0.66409135       0.67374010      -2.43557963
H        0.65740317      -0.63156657      -2.45157240
C       -0.90989263      -0.90692880      -0.91072765
C        0.90977584       0.90977584      -0.90977584
C       -0.00465871       1.77757030       0.00794375
H       -0.66225468       2.44313916      -0.64384735
H        0.64322798       2.43503045       0.67728295
C       -1.78241447       0.00034974      -0.00472694
H       -2.45427497      -0.65498947       0.64260836
H       -2.43311707       0.67328779      -0.65473579
C       -0.91132561       0.90220522       0.91563759
C       -0.01476271      -0.02253852       1.78660255
H       -0.67934791      -0.69751639       2.42135241
H        0.63392994       0.61504881       2.47327442
C        0.01484550      -1.77751727      -0.01636693
H        0.67870853      -2.42144646      -0.68295456
H       -0.62264859      -2.45592969       0.64226336
C        1.78714474       0.01002794       0.00389507
H        2.44202412       0.67113390       0.66197326
H        2.45385902      -0.65136977      -0.64189061
C        0.91606151      -0.90478549       0.90901405
