177
Properties=species:S:1:pos:R:3 pbc="F F F"
C        0.00000000       0.00000000       0.00000000
C        0.88128224       0.88128224      -0.88128224
C        0.29785641       1.73925673      -1.80336422
C        1.10500429       2.55067624      -2.60620619
C        2.50283581       2.50207105      -2.51411344
N        3.33580170       3.33211422      -3.30671476
C        2.96172973       4.17442571      -4.33465515
O        1.83276913       4.27656350      -4.81587613
C        4.12448221       4.92902446      -4.97588153
N        4.31929185       4.36655248      -6.30198806
C        5.39468522       3.54555500      -6.57150314
O        6.31458002       3.39328015      -5.77812575
C        5.38555262       2.86319753      -7.89843125
C        4.85828618       3.55381691      -9.00640528
C        4.85257438       2.97167344     -10.27608560
C        5.38957089       1.70174935     -10.45999597
C        5.92362406       1.00916804      -9.37339826
C        5.91972351       1.57915219      -8.09159987
Br       6.60246270       0.48656161      -6.69255292
C        3.08501892       1.60367027      -1.58796687
C        2.26563196       0.81912681      -0.75676548
C        4.56940515       1.49906970      -1.45362346
O        5.26440795       2.48318165      -1.69988145
C        5.22904909       0.23992623      -1.01737934
C        4.77502003      -1.01535373      -1.44248944
C        5.39462513      -2.17574613      -0.97369648
C        6.47967876      -2.08535547      -0.10188410
C        6.95785216      -0.83585178       0.29283022
C        6.33814702       0.32700386      -0.16835407
H       -0.78315982       1.80048385      -1.90369905
H        0.59987094       3.22579332      -3.29034412
H        4.33707783       3.27030523      -3.09261357
H        5.03251956       4.87683894      -4.36985743
H        3.83542220       5.97812304      -5.09121152
H        3.49255760       4.31650989      -6.88651101
H        4.46943805       4.56393636      -8.90008806
H        4.44053221       3.51568609     -11.12306826
H        5.39615632       1.24948134     -11.44901968
H        6.34006424       0.01670635      -9.53491099
H        2.69767698       0.16421062      -0.00446028
H        3.94674185      -1.10712341      -2.14027096
H        5.03560124      -3.15153937      -1.29246624
H        6.96171103      -2.99017985       0.26122483
H        7.81491409      -0.76696139       0.95844194
H        6.71784186       1.29893852       0.14007952
C       -0.88128224      -0.88128224      -0.88128224
C       -2.26016475      -0.72376259      -0.85655002
C       -3.06671800      -1.52693170      -1.66823701
C       -2.51062379      -2.50982873      -2.49856777
N       -3.31233182      -3.31962716      -3.34267169
C       -4.69039416      -3.38359720      -3.39681922
O       -5.47455763      -2.81227623      -2.63837490
C       -5.22787472      -4.36882895      -4.43268453
N       -5.79710268      -5.48894205      -3.70178767
C       -5.14971170      -6.70628002      -3.65575163
O       -4.17611490      -6.95464342      -4.35522761
C       -5.71494781      -7.71720816      -2.71502543
C       -7.11122808      -7.76690602      -2.54037428
C       -7.69338976      -8.71315644      -1.69378722
C       -6.89212320      -9.63333795      -1.02585506
C       -5.50806653      -9.60202522      -1.19609861
C       -4.91293805      -8.64550223      -2.03203529
Br      -3.01243625      -8.66767493      -2.10146604
C       -1.10501278      -2.67730528      -2.49433799
C       -0.29781657      -1.83939692      -1.70431076
C       -0.45609106      -3.71664223      -3.34936502
O       -0.99583439      -4.04831919      -4.40331746
C        0.83246501      -4.35223776      -2.96658191
C        1.12271308      -4.68724060      -1.63762822
C        2.36286779      -5.24163023      -1.31381303
C        3.30306748      -5.48404988      -2.31522501
C        3.00199021      -5.18676839      -3.64439198
C        1.76589289      -4.62694730      -3.97245053
H       -2.72563755       0.02673323      -0.22211876
H       -4.13658363      -1.34455370      -1.63487106
H       -2.78956042      -3.94401000      -3.96642621
H       -4.45498275      -4.68760040      -5.13663277
H       -6.03437524      -3.88141526      -4.98896626
H       -6.46642786      -5.25037916      -2.97877149
H       -7.76519832      -7.08686224      -3.08140191
H       -8.77332673      -8.73929812      -1.56666170
H       -7.34268652     -10.37809870      -0.37387212
H       -4.89593097     -10.32942865      -0.66632196
H        0.78577423      -1.92094787      -1.73117423
H        0.39501931      -4.52897426      -0.84593444
H        2.59503825      -5.49060914      -0.28095722
H        4.26794148      -5.91698422      -2.06126361
H        3.72930719      -5.39283316      -4.42598479
H        1.53527026      -4.40052865      -5.01144246
C       -0.88128224       0.88128224       0.88128224
C       -1.80480076       0.29792180       1.73775480
C       -2.60764700       1.10506112       2.54917859
C       -2.51411266       2.50284783       2.50205981
N       -3.30671111       3.33577636       3.33214321
C       -4.33586365       2.96189079       4.17305614
O       -4.81831126       1.83330962       4.27358788
C       -4.97668335       4.12452976       4.92817509
N       -6.30203324       4.32122282       4.36457633
C       -6.56965715       5.39770227       3.54438393
O       -5.77521179       6.31695641       3.39381773
C       -7.89591228       5.39057361       2.86069552
C       -9.00509973       4.86372476       3.54968389
C      -10.27420369       4.85985990       2.96626984
C      -10.45631170       5.39830506       1.69669945
C       -9.36849183       5.93196391       1.00573462
C       -8.08726726       5.92621646       1.57699185
Br      -6.68645118       6.60864814       0.48647790
C       -1.58649046       3.08500178       1.60516381
C       -0.75532385       2.26556831       0.82063210
C       -1.45056338       4.56935676       1.50217817
O       -1.69711025       5.26362371       2.48673708
C       -1.01240604       5.22981977       0.24412886
C       -1.43671588       4.77746639      -1.01202652
C       -0.96614815       5.39775970      -2.17133238
C       -0.09334538       6.48185239      -2.07899037
C        0.30059855       6.95838617      -0.82861746
C       -0.16236307       6.33798276       0.33315911
H       -1.90627400      -0.78305428       1.79780336
H       -3.29296125       0.59993795       3.22310919
H       -3.09155052       4.33689950       3.27154661
H       -4.36970277       5.03201361       4.87749955
H       -5.09334798       3.83453948       5.97686930
H       -6.88732967       3.49512243       4.31312641
H       -8.90017794       4.47376419       4.55952035
H      -11.12213893       4.44812094       3.50902669
H      -11.44487666       5.40632796       1.24345273
H       -9.52859919       6.34955397       0.01352842
H       -0.00193539       2.69751508       0.16689740
H       -2.13523067       3.94997665      -1.10531792
H       -1.28430191       5.04002674      -3.14780054
H        0.27114634       6.96442372      -2.98297104
H        0.96699509       7.81471452      -0.75820868
H        0.14547897       6.71640080       1.30577902
C        0.88128224      -0.88128224       0.88128224
C        0.63931101      -2.24610752       0.95505883
C        1.45032865      -3.05396718       1.75759088
C        2.49871823      -2.50877441       2.51152766
N        3.34315391      -3.31624792       3.31522884
C        3.21435886      -4.66222390       3.59422782
O        2.27131604      -5.38451309       3.26937963
C        4.31146113      -5.21832566       4.49960140
N        3.70029856      -5.49937731       5.78815653
C        3.94349842      -4.68983796       6.87840696
O        4.80283603      -3.81793975       6.86521015
C        3.11017884      -4.94809320       8.08890936
C        2.75303374      -6.27665318       8.38882146
C        1.99879383      -6.57576286       9.52577674
C        1.60766030      -5.55622375      10.38743216
C        1.96178549      -4.23632444      10.10808043
C        2.70575933      -3.92424904       8.96046720
Br       3.04209396      -2.07604049       8.66344277
C        2.71774400      -1.11174393       2.44716813
C        1.92232489      -0.31162019       1.60757916
C        3.81237263      -0.47202569       3.23769999
O        4.82056474      -1.12437711       3.50252919
C        3.72142398       0.93746596       3.70239664
C        2.51823039       1.48375169       4.16767704
C        2.46493152       2.82505808       4.55270203
C        3.61357805       3.61441344       4.49704279
C        4.82160365       3.06277304       4.07033954
C        4.87872989       1.72398288       3.67875793
H       -0.16730624      -2.70223873       0.38609059
H        1.23895593      -4.11900655       1.75804591
H        4.12682409      -2.81999040       3.75318213
H        5.15863884      -4.53338859       4.58718850
H        4.66316939      -6.16450069       4.07708669
H        2.86197263      -6.06887003       5.76473585
H        3.07978297      -7.09820729       7.75547221
H        1.72833654      -7.60632999       9.74462002
H        1.02909231      -5.78651482      11.27905021
H        1.64789515      -3.45086224      10.79292419
H        2.11286556       0.75382892       1.50731123
H        1.61773987       0.87960349       4.24175301
H        1.52888368       3.25447999       4.90212442
H        3.57039346       4.65853894       4.79845182
H        5.71994665       3.67485812       4.04442222
H        5.82465533       1.29821987       3.35026539
