198
Properties=species:S:1:pos:R:3 pbc="F F F"
C        1.79118626       1.79118626      -1.79118626
C        1.20776044       2.64916076      -2.71326824
C        2.01490831       3.46058026      -3.51611021
C        3.41273984       3.41197507      -3.42401746
N        4.24570573       4.24201824      -4.21661878
C        3.87163375       5.08432973      -5.24455917
O        2.74267316       5.18646752      -5.72578016
C        5.03438624       5.83892848      -5.88578556
N        5.22919588       5.27645651      -7.21189209
C        6.30458924       4.45545902      -7.48140716
O        7.22448405       4.30318418      -6.68802977
C        6.29545665       3.77310155      -8.80833527
C        5.76819021       4.46372094      -9.91630931
C        5.76247841       3.88157747     -11.18598962
C        6.29947492       2.61165337     -11.36989999
C        6.83352808       1.91907206     -10.28330228
C        6.82962753       2.48905622      -9.00150389
Br       7.51236672       1.39646564      -7.60245694
C        3.99492295       2.51357429      -2.49787090
C        3.17553599       1.72903083      -1.66666950
C        5.47930917       2.40897372      -2.36352749
O        6.17431197       3.39308567      -2.60978548
C        6.13895312       1.14983025      -1.92728336
C        5.68492406      -0.10544970      -2.35239346
C        6.30452915      -1.26584211      -1.88360050
C        7.38958279      -1.17545144      -1.01178813
C        7.86775619       0.07405224      -0.61707380
C        7.24805105       1.23690788      -1.07825809
H        0.12674421       2.71038787      -2.81360307
H        1.50977496       4.13569735      -4.20024815
H        5.24698186       4.18020925      -4.00251759
H        5.94242358       5.78674296      -5.27976146
H        4.74532622       6.88802707      -6.00111555
H        4.40246163       5.22641392      -7.79641504
H        5.37934208       5.47384038      -9.80999209
H        5.35043623       4.42559011     -12.03297229
H        6.30606035       2.15938536     -12.35892371
H        7.24996826       0.92661037     -10.44481501
H        3.60758100       1.07411465      -0.91436430
H        4.85664587      -0.19721939      -3.05017498
H        5.94550526      -2.24163534      -2.20237026
H        7.87161505      -2.08027583      -0.64867920
H        8.72481812       0.14294263       0.04853792
H        7.62774588       2.20884254      -0.76982451
C       -1.79118626      -1.79118626      -1.79118626
C       -1.68624968      -1.71098056      -3.17295920
C       -2.48923858      -2.52253428      -3.97982592
C       -3.42016772      -3.40845834      -3.42010632
N       -4.22842944      -4.25280727      -4.22310603
C       -4.34181504      -4.25967407      -5.59903353
O       -3.82783605      -3.45269790      -6.37438689
C       -5.30850757      -5.31158574      -6.13900696
N       -6.47467070      -4.60300567      -6.63986810
C       -7.66785702      -4.62578074      -5.94781766
O       -7.85436269      -5.36862787      -4.99270743
C       -8.73238478      -3.70372087      -6.44078782
C       -8.84043200      -3.48090833      -7.82688012
C       -9.83761294      -2.64983702      -8.34259553
C      -10.75067956      -2.04599627      -7.48435246
C      -10.66160774      -2.26465363      -6.10964107
C       -9.65406723      -3.08517203      -5.58094838
Br      -9.60275547      -3.22373589      -3.68479793
C       -3.53509223      -3.46107471      -2.01020119
C       -2.69660728      -2.66987773      -1.20475131
C       -4.51803079      -4.37710985      -1.35666975
O       -4.83148142      -5.42260219      -1.92309951
C       -5.11843878      -4.06494681      -0.03268115
C       -5.48998316      -2.76073464       0.31884999
C       -6.00897934      -2.50268640       1.58937819
C       -6.17992953      -3.54563940       2.49964945
C       -5.84645238      -4.85108316       2.13865331
C       -5.32172785      -5.11331230       0.87182313
H       -0.97697529      -1.03263064      -3.64112922
H       -2.34825057      -2.44389983      -5.05357007
H       -4.81000553      -4.91784850      -3.70185467
H       -5.57265898      -6.05430449      -5.38196453
H       -4.83184017      -5.81989545      -6.98273322
H       -6.28743948      -3.84796660      -7.28988450
H       -8.16624792      -3.97228210      -8.52464452
H       -9.90861445      -2.48499183      -9.41539234
H      -11.53472490      -1.40648076      -7.88316376
H      -11.38424473      -1.78477827      -5.45237065
H       -2.73662550      -2.73874802      -0.12068643
H       -5.38759135      -1.93800761      -0.38400250
H       -6.28612737      -1.48887178       1.86875897
H       -6.58539751      -3.34290908       3.48828816
H       -5.99695590      -5.66549383       2.84322691
H       -5.06683109      -6.13415279       0.59457095
C       -1.79118626       1.79118626       1.79118626
C       -3.09899531       2.05978548       1.41140864
C       -3.90783318       2.86204351       2.22172210
C       -3.41712858       3.42250101       3.40910278
N       -4.22959969       4.22218393       4.25255912
C       -5.51025054       4.67836412       4.01190798
O       -6.14140600       4.55140814       2.96210669
C       -6.09495610       5.51932440       5.14481977
N       -6.15444840       6.89218745       4.67090863
C       -5.26620105       7.84020383       5.13505054
O       -4.51435827       7.62446580       6.07687393
C       -5.28426744       9.15773382       4.43489221
C       -6.51713187       9.65752576       3.97356282
C       -6.59339001      10.89888281       3.33777267
C       -5.44458629      11.66529164       3.17115036
C       -4.21762402      11.18718166       3.63109675
C       -4.12848069       9.93483740       4.25686954
Br      -2.38026377       9.37576434       4.75526119
C       -2.07367857       3.16172291       3.77096666
C       -1.27848419       2.32216219       2.97058994
C       -1.49145927       3.74145849       5.01889263
O       -2.23060022       3.97246532       5.97411759
C       -0.03903057       4.03500371       5.14203247
C        0.70009110       4.55862251       4.07333640
C        2.07183717       4.77790572       4.21621899
C        2.70173812       4.49866557       5.42899202
C        1.96098522       4.01322154       6.50664591
C        0.59052402       3.78673905       6.36700199
H       -3.51147394       1.64406958       0.49519163
H       -4.93187439       3.01780222       1.89604385
H       -3.78913363       4.50625126       5.13432381
H       -5.51487984       5.42749163       6.06655653
H       -7.11816320       5.18122370       5.33508194
H       -6.61470948       7.03201192       3.77856918
H       -7.43756744       9.09880872       4.12679839
H       -7.55206138      11.27223966       2.98469759
H       -5.50177442      12.63683048       2.68576451
H       -3.32870396      11.79973853       3.49295116
H       -0.26244833       2.07021572       3.26339589
H        0.22409770       4.80573605       3.12796311
H        2.64983599       5.17233840       3.38373778
H        3.76995530       4.67121791       5.53875581
H        2.45037536       3.81285252       7.45674567
H        0.01721384       3.41140511       7.21222166
C        1.79118626      -1.79118626       1.79118626
C        2.24169905      -3.01437265       1.31411773
C        3.05376657      -3.81864733       2.11918488
C        3.40963543      -3.42311339       3.41598355
N        4.24840143      -4.21740382       4.23853750
C        4.71902338      -5.49133665       3.99016262
O        4.40450812      -6.20974104       3.04067168
C        5.60915299      -6.05316958       5.09677770
N        4.85392912      -7.10260661       5.76100874
C        4.32036756      -6.90356057       7.01752729
O        4.59676837      -5.92278435       7.69614528
C        3.39674161      -7.96416921       7.51598266
C        3.66621886      -9.30417156       7.17783003
C        2.84968100     -10.33772248       7.64264202
C        1.76585029     -10.04961427       8.46556373
C        1.49186261      -8.72769827       8.81634155
C        2.29692843      -7.68148770       8.34177150
Br       1.75434339      -5.92560087       8.83134504
C        2.92170859      -2.18532857       3.89933097
C        2.13751800      -1.36437709       3.06934124
C        3.25762808      -1.71652778       5.27765452
O        4.31889284      -2.06944886       5.78884142
C        2.34867811      -0.82347650       6.04391212
C        0.95672248      -0.97544289       5.99970245
C        0.13638429      -0.08730852       6.69859474
C        0.70222739       0.93570876       7.45940084
C        2.08892781       1.06584113       7.53579554
C        2.91316037       0.18415217       6.83420882
H        1.98250654      -3.35403963       0.31418898
H        3.40444530      -4.75201553       1.68925963
H        4.50933453      -3.78769936       5.13267482
H        5.93658282      -5.27806050       5.79428468
H        6.49019177      -6.50925666       4.63502041
H        4.45734018      -7.81239681       5.15555360
H        4.53032068      -9.56273941       6.57011446
H        3.06831071     -11.36836990       7.37231801
H        1.13394140     -10.85269517       8.83773285
H        0.64018888      -8.51990987       9.46129490
H        1.80024894      -0.38803164       3.40777937
H        0.49658646      -1.78043506       5.43257995
H       -0.94484243      -0.19575780       6.65532481
H        0.06174410       1.62571755       8.00399187
H        2.52865210       1.85299025       8.14356098
H        3.99422759       0.28833154       6.90051688
C       -0.00445707       0.01189536      -1.78238275
H       -0.66409135       0.67374010      -2.43557963
H        0.65740317      -0.63156657      -2.45157240
C       -0.90989263      -0.90692880      -0.91072765
C        0.90977584       0.90977584      -0.90977584
C       -0.00465871       1.77757030       0.00794375
H       -0.66225468       2.44313916      -0.64384735
H        0.64322798       2.43503045       0.67728295
C       -1.78241447       0.00034974      -0.00472694
H       -2.45427497      -0.65498947       0.64260836
H       -2.43311707       0.67328779      -0.65473579
C       -0.91132561       0.90220522       0.91563759
C       -0.01476271      -0.02253852       1.78660255
H       -0.67934791      -0.69751639       2.42135241
H        0.63392994       0.61504881       2.47327442
C        0.01484550      -1.77751727      -0.01636693
H        0.67870853      -2.42144646      -0.68295456
H       -0.62264859      -2.45592969       0.64226336
C        1.78714474       0.01002794       0.00389507
H        2.44202412       0.67113390       0.66197326
H        2.45385902      -0.65136977      -0.64189061
C        0.91606151      -0.90478549       0.90901405
