185
Properties=species:S:1:pos:R:3 pbc="F F F"
C        0.00000000       0.00000000       0.00000000
C        0.88128224       0.88128224      -0.88128224
C        0.29785641       1.73925673      -1.80336422
C        1.10500429       2.55067624      -2.60620619
C        2.50283581       2.50207105      -2.51411344
N        3.33580170       3.33211422      -3.30671476
C        2.96172973       4.17442571      -4.33465515
O        1.83276913       4.27656350      -4.81587613
C        4.12448221       4.92902446      -4.97588153
N        4.31929185       4.36655248      -6.30198806
C        5.39468522       3.54555500      -6.57150314
O        6.31458002       3.39328015      -5.77812575
C        5.38555262       2.86319753      -7.89843125
C        4.85828618       3.55381691      -9.00640528
C        4.85257438       2.97167344     -10.27608560
C        5.38957089       1.70174935     -10.45999597
C        5.92362406       1.00916804      -9.37339826
C        5.91972351       1.57915219      -8.09159987
C        3.08501892       1.60367027      -1.58796687
C        2.26563196       0.81912681      -0.75676548
C        4.56940515       1.49906970      -1.45362346
O        5.26440795       2.48318165      -1.69988145
C        5.22904909       0.23992623      -1.01737934
C        4.77502003      -1.01535373      -1.44248944
C        5.39462513      -2.17574613      -0.97369648
C        6.47967876      -2.08535547      -0.10188410
C        6.95785216      -0.83585178       0.29283022
C        6.33814702       0.32700386      -0.16835407
H       -0.78315982       1.80048385      -1.90369905
H        0.59987094       3.22579332      -3.29034412
H        4.33707783       3.27030523      -3.09261357
H        5.03251956       4.87683894      -4.36985743
H        3.83542220       5.97812304      -5.09121152
H        3.49255760       4.31650989      -6.88651101
H        4.46943805       4.56393636      -8.90008806
H        4.44053221       3.51568609     -11.12306826
H        5.39615632       1.24948134     -11.44901968
H        6.34006424       0.01670635      -9.53491099
H        2.69767698       0.16421062      -0.00446028
H        3.94674185      -1.10712341      -2.14027096
H        5.03560124      -3.15153937      -1.29246624
H        6.96171103      -2.99017985       0.26122483
H        7.81491409      -0.76696139       0.95844194
H        6.71784186       1.29893852       0.14007952
C        6.43665132       0.75191030      -7.03232819
C        6.86957837       0.05909521      -6.14518817
Br       7.56958478      -1.06112819      -4.71075777
C       -0.88128224      -0.88128224      -0.88128224
C       -0.78872904      -0.78858944      -2.26315888
C       -1.59167886      -1.60010999      -3.07009786
C       -2.51036151      -2.49855566      -2.51010313
N       -3.31827561      -3.34294622      -3.31340885
C       -3.44324834      -3.33921782      -4.68834443
O       -2.94264940      -2.52143471      -5.46112465
C       -4.40561127      -4.39470700      -5.22906994
N       -5.58188393      -3.69184745      -5.71410102
C       -6.76893308      -3.73053793      -5.01227235
O       -6.94109816      -4.48293274      -4.06195503
C       -7.84530356      -2.81341928      -5.48845857
C       -7.96695320      -2.57989730      -6.87165788
C       -8.97541017      -1.75299936      -7.37192390
C       -9.88621433      -1.16414189      -6.50095998
C       -9.78367001      -1.39357412      -5.12894623
C       -8.76483294      -2.20994115      -4.61570148
C       -2.61289536      -2.56398193      -1.09977876
C       -1.77429306      -1.77250416      -0.29472702
C       -3.58253635      -3.49376485      -0.44579712
O       -3.89198182      -4.53708061      -1.01840861
C       -4.17431018      -3.19782774       0.88578326
C       -4.55380372      -1.89980712       1.25145510
C       -5.06416984      -1.65684252       2.52843688
C       -5.21864002      -2.70881355       3.43124616
C       -4.87728082      -4.00830858       3.05641924
C       -4.36112033      -4.25543633       1.78305171
H       -0.08916684      -0.10034919      -2.73150705
H       -1.46045489      -1.51126982      -4.14428368
H       -3.88981082      -4.01724302      -2.79294280
H       -4.65709511      -5.14596765      -4.47615317
H       -3.93185461      -4.89185802      -6.08104413
H       -5.40651187      -2.92981759      -6.35924905
H       -7.29459997      -3.05966659      -7.57919592
H       -9.05687661      -1.57975790      -8.44265204
H      -10.67895210      -0.52796282      -6.88774242
H      -10.50471909      -0.92537271      -4.46158977
H       -1.80454902      -1.85081241       0.78901355
H       -4.46428095      -1.07036891       0.55476047
H       -5.34744604      -0.64779342       2.81871136
H       -5.61740880      -2.51783415       4.42493660
H       -5.01496715      -4.82985293       3.75530933
H       -4.10001679      -5.27171711       1.49503304
C       -8.71294593      -2.32657315      -3.18137072
C       -8.66949056      -2.42425246      -1.98011872
Br      -8.59922691      -2.58219163      -0.03779582
C       -0.88128224       0.88128224       0.88128224
C       -2.24565732       0.63748404       0.95733600
C       -3.05166983       1.44100560       1.76921129
C       -2.51131710       2.50903686       2.49866634
N       -3.31093625       3.32159828       3.34209615
C       -4.68422316       3.30363553       3.48295189
O       -5.47440882       2.63612793       2.81467200
C       -5.22040587       4.31990296       4.48907937
N       -5.90638720       5.35201264       3.72943257
C       -5.34478257       6.60137298       3.56558780
O       -4.34828719       6.95507449       4.18262424
C       -6.03256664       7.51115306       2.60346171
C       -7.43720821       7.46275980       2.51854037
C       -8.13175973       8.31328890       1.65528479
C       -7.43577980       9.23521248       0.88032394
C       -6.04479693       9.30086875       0.96052468
C       -5.33731302       8.44020882       1.81295372
C       -1.12277118       2.76249438       2.39139050
C       -0.31248740       1.92584416       1.60319269
C       -0.49216594       3.89410511       3.13582726
O       -0.98637962       4.26054790       4.20054353
C        0.72551489       4.58155680       2.63031275
C        0.91027540       4.84549290       1.26693824
C        2.08875644       5.45296650       0.82836541
C        3.07106018       5.81859629       1.74867128
C        2.87304019       5.59157123       3.11063911
C        1.69922062       4.97921927       3.55350630
H       -2.69896972      -0.18057239       0.40262575
H       -4.10718845       1.19099611       1.81782382
H       -2.79290289       4.01689846       3.89019528
H       -4.42816013       4.73160420       5.11945160
H       -5.95704683       3.82128702       5.12642291
H       -6.60195985       5.02534008       3.06827858
H       -8.01018279       6.78073178       3.14254791
H       -9.21686051       8.26413824       1.59828780
H       -7.97394574       9.90605214       0.21465946
H       -5.51591321      10.02821671       0.34755165
H        0.76294777       2.07585976       1.55343589
H        0.14702935       4.59064803       0.53627071
H        2.23966630       5.64716705      -0.23097264
H        3.98771935       6.29269132       1.40533438
H        3.63213375       5.89332925       3.82831526
H        1.54874390       4.80798700       4.61745775
C       -3.90212075       8.54940262       1.76936644
C       -2.70014722       8.64085243       1.73286209
Br      -0.75665768       8.78871904       1.67383765
C        0.88128224      -0.88128224       0.88128224
C        0.92465851      -2.25159128       0.66422757
C        1.73647990      -3.05777529       1.46763153
C        2.49862453      -2.51110195       2.50929382
N        3.34230334      -3.31136409       3.32096325
C        3.45493870      -4.68734958       3.32852231
O        2.75716058      -5.47690975       2.69113843
C        4.47078564      -5.22352360       4.33507896
N        3.71889247      -5.87264162       5.39629831
C        3.59228616      -5.28260504       6.63685214
O        4.23653570      -4.29211333       6.95733689
C        2.63543522      -5.93181844       7.57992774
C        2.52112487      -7.33509795       7.56228556
C        1.66174235      -7.99431713       8.44427394
C        0.92023170      -7.26396523       9.36711928
C        1.02990358      -5.87389187       9.40239491
C        1.87851655      -5.20172710       8.51023191
C        2.42472788      -1.11579182       2.73613636
C        1.63597624      -0.30649779       1.89905023
C        3.20498755      -0.47792653       3.83918423
O        4.26682621      -0.98650935       4.19413549
C        2.73852502       0.76359792       4.51142756
C        1.38491101       0.98178229       4.79902702
C        0.98291699       2.18112221       5.39078069
C        1.93026833       3.15140569       5.71734476
C        3.28297031       2.92074340       5.46694324
C        3.68925047       1.72587558       4.87013005
H        0.34411013      -2.70981137      -0.13289843
H        1.75854829      -4.11891593       1.23854417
H        3.91501760      -2.79079770       3.99418133
H        5.12543005      -4.43629786       4.71748802
H        5.08265694      -5.98311084       3.83898898
H        3.03719172      -6.56087823       5.09750856
H        3.11918948      -7.93452341       6.87974959
H        1.58179540      -9.07878156       8.41870959
H        0.25781093      -7.77458168      10.06226474
H        0.44291269      -5.31784963      10.13091925
H        1.61110177       0.77255118       2.02779729
H        0.63383989       0.22878989       4.57483939
H       -0.06891308       2.35777912       5.60322031
H        1.61541719       4.08436706       6.17925622
H        4.02194042       3.67080274       5.73837307
H        4.74617517       1.55002113       4.68054681
C        1.86624607      -3.76402498       8.59061876
C        1.85596954      -2.55994945       8.65794275
Br       1.83935326      -0.61306116       8.76679994
