162
Properties=species:S:1:pos:R:3 pbc="F F F"
C        1.78241508       1.78241508      -1.78241508
C        2.90866326       2.41578252      -1.32923294
C        3.52754310       3.15802837      -2.37698020
C        2.85700845       3.06930505      -3.58948880
C        3.16559260       3.65882866      -4.85244071
H        2.44681877       3.53031208      -5.65628833
N        4.33088026       4.31736651      -4.97542210
N        4.48405113       4.85591213      -6.30464655
C        5.60319927       5.51548803      -6.81743585
N        5.52455703       5.91848218      -8.12263920
N        6.53377122       6.55757465      -8.74447507
C        7.63775338       6.76878119      -7.99096726
C        8.88166935       7.38677920      -8.28600009
C        9.42348073       7.99835808      -9.43581407
C       10.72050034       8.51478715      -9.38092532
C       11.48097233       8.43501483      -8.21686740
C       10.96446046       7.83368418      -7.06468955
C        9.66080276       7.31590047      -7.12178847
N        8.89405536       6.67524570      -6.16304252
C        9.31608431       6.38313937      -4.81309112
C        7.67164096       6.34345478      -6.67850889
N        6.68196612       5.71371781      -6.03304619
S        1.45773571       2.07105581      -3.41749741
H        3.28379682       2.36127194      -0.31680081
H        4.43353289       3.74317675      -2.27009070
H        3.75061639       4.71108602      -6.98097767
H        8.82811257       8.05772837     -10.34227108
H       12.48934022       8.84093402      -8.19149427
H       11.55957386       7.77216860      -6.15889647
H        8.50580509       5.91450906      -4.25018817
H        9.59932124       7.32150188      -4.32926688
H       10.17068034       5.70349846      -4.86100244
C       11.28134429       9.13997460     -10.55062388
C       11.75105110       9.66356908     -11.53024642
Br      12.51052728      10.51017709     -13.11421322
C       -1.78241508      -1.78241508      -1.78241508
C       -1.41818096      -2.20137661      -3.03412115
C       -2.43604136      -3.01566362      -3.61084669
C       -3.53931746      -3.19024119      -2.78624364
C       -4.73927349      -3.93161406      -3.00597443
H       -5.52043218      -3.85778829      -2.25519871
N       -4.82152744      -4.68832386      -4.11381756
N       -6.09458611      -5.36225503      -4.18776868
C       -6.49341223      -6.29653493      -5.14617599
N       -7.74795976      -6.82163306      -4.99608559
N       -8.25506803      -7.73727215      -5.84348076
C       -7.43462356      -8.10982704      -6.85305124
C       -7.60240965      -9.03454857      -7.91749042
C       -8.65225913      -9.88708816      -8.31830559
C       -8.47698584     -10.69369970      -9.44552727
C       -7.29000728     -10.66917672     -10.17367055
C       -6.23583542      -9.83160627      -9.79539249
C       -6.41420239      -9.02151044      -8.66277888
N       -5.56817349      -8.10915542      -8.05501467
C       -4.22971874      -7.78933682      -8.49325924
C       -6.17658219      -7.55333045      -6.96369199
N       -5.65007867      -6.63684679      -6.14180466
S       -3.30809041      -2.33477731      -1.30342120
H       -0.48573406      -1.95406463      -3.52207090
H       -2.38358600      -3.46960056      -4.59361378
H       -6.77297488      -5.21246903      -3.45723618
H       -9.57607974      -9.90460413      -7.74742814
H       -7.16953149     -11.30433735     -11.04789967
H       -5.31143422      -9.81494489     -10.36425983
H       -3.79776419      -7.00506025      -7.86767787
H       -4.27914161      -7.44232699      -9.52862140
H       -3.62044302      -8.69382087      -8.42091734
C       -9.54355472     -11.56747740      -9.86091064
C      -10.43680616     -12.29926623     -10.20879422
Br     -11.88111819     -13.48250686     -10.77129254
C       -1.78241508       1.78241508       1.78241508
C       -1.44207874       2.15679604       3.05480394
C       -2.45313683       2.98324528       3.62616956
C       -3.52774724       3.21100487       2.77705019
C       -4.71275779       3.97940762       2.98469657
H       -5.47432324       3.94793061       2.21116533
N       -4.80535078       4.70768826       4.11062982
N       -6.06116490       5.41471410       4.16873082
C       -6.46107424       6.33335487       5.14169405
N       -7.69617349       6.89724125       4.97226367
N       -8.20168362       7.80330684       5.83083049
C       -7.39997262       8.12514200       6.87238722
C       -7.57224504       9.02488096       7.95732264
C       -8.60930454       9.89523675       8.35311160
C       -8.44375053      10.66564782       9.50681445
C       -7.27871816      10.58811191      10.26602448
C       -6.23756275       9.73197949       9.89329195
C       -6.40615203       8.95832010       8.73401957
N       -5.56859527       8.03953040       8.12421791
C       -4.25212811       7.67057615       8.58961054
C       -6.16113297       7.53085709       7.00161456
N       -5.63697910       6.62271060       6.16904042
S       -3.27849043       2.39008344       1.27771506
H       -0.53072723       1.87030065       3.56084170
H       -2.41586450       3.40861895       4.62231688
H       -6.72267271       5.30390818       3.41609919
H       -9.51597067       9.95412708       7.75801427
H       -7.16550762      11.19562213      11.16063875
H       -5.33023696       9.67398156      10.48642041
H       -3.82434544       6.89183836       7.95431851
H       -4.33992866       7.29703258       9.61312875
H       -3.61667379       8.55929185       8.55921559
C       -9.49734624      11.55729682       9.91729970
C      -10.37973265      12.30405286      10.26108109
Br     -11.80647684      13.51149422      10.81694653
C        1.78241508      -1.78241508       1.78241508
C        3.09284489      -2.06124522       1.49958862
C        3.65920645      -2.90026359       2.50308163
C        2.76769224      -3.23451006       3.51359999
C        2.96094163      -4.03907500       4.67684534
H        2.09217787      -4.24680196       5.29443935
N        4.20431042      -4.47238238       4.94697605
N        4.22473871      -5.27403411       6.14583700
C        5.34984811      -5.81051586       6.77575919
N        5.12175648      -6.52174691       7.92217503
N        6.11645296      -7.08588355       8.63348443
C        7.36205032      -6.89521179       8.14023972
C        8.63763056      -7.31609124       8.60072684
C        9.07980944      -8.06992537       9.70791808
C       10.44856888      -8.30015973       9.86748419
C       11.37606523      -7.79992416       8.95686516
C       10.96087454      -7.05043765       7.85152200
C        9.58504926      -6.82071340       7.69272905
N        8.88523954      -6.12800491       6.71909913
C        9.47530505      -5.44589875       5.59111101
C        7.54358179      -6.16954996       6.98047288
N        6.57424553      -5.60492100       6.24956359
S        1.22962227      -2.51088236       3.20578430
H        3.63059162      -1.69510359       0.63617437
H        4.68217083      -3.25827847       2.50635103
H        3.36251416      -5.43850245       6.64166347
H        8.35387372      -8.45745408      10.41678422
H       12.43795578      -7.98727173       9.09654100
H       11.68592694      -6.66107469       7.14363731
H        8.69951386      -5.02006516       4.95092330
H       10.06221946      -6.16901164       5.01885890
H       10.11681678      -4.64692688       5.97143758
C       10.90831827      -9.06806762      10.99555687
C       11.29335839      -9.71119047      11.94031775
Br      11.91593569     -10.75106573      13.46791617
C       -0.00445707       0.01189536      -1.78238275
H       -0.66409135       0.67374010      -2.43557963
H        0.65740317      -0.63156657      -2.45157240
C       -0.90989263      -0.90692880      -0.91072765
C        0.90977584       0.90977584      -0.90977584
C       -0.00465871       1.77757030       0.00794375
H       -0.66225468       2.44313916      -0.64384735
H        0.64322798       2.43503045       0.67728295
C       -1.78241447       0.00034974      -0.00472694
H       -2.45427497      -0.65498947       0.64260836
H       -2.43311707       0.67328779      -0.65473579
C       -0.91132561       0.90220522       0.91563759
C       -0.01476271      -0.02253852       1.78660255
H       -0.67934791      -0.69751639       2.42135241
H        0.63392994       0.61504881       2.47327442
C        0.01484550      -1.77751727      -0.01636693
H        0.67870853      -2.42144646      -0.68295456
H       -0.62264859      -2.45592969       0.64226336
C        1.78714474       0.01002794       0.00389507
H        2.44202412       0.67113390       0.66197326
H        2.45385902      -0.65136977      -0.64189061
C        0.91606151      -0.90478549       0.90901405
