154
Properties=species:S:1:pos:R:3 pbc="F F F"
C        1.78241508       1.78241508      -1.78241508
C        2.90866326       2.41578252      -1.32923294
C        3.52754310       3.15802837      -2.37698020
C        2.85700845       3.06930505      -3.58948880
C        3.16559260       3.65882866      -4.85244071
H        2.44681877       3.53031208      -5.65628833
N        4.33088026       4.31736651      -4.97542210
N        4.48405113       4.85591213      -6.30464655
C        5.60319927       5.51548803      -6.81743585
N        5.52455703       5.91848218      -8.12263920
N        6.53377122       6.55757465      -8.74447507
C        7.63775338       6.76878119      -7.99096726
C        8.88166935       7.38677920      -8.28600009
C        9.42348073       7.99835808      -9.43581407
C       10.72050034       8.51478715      -9.38092532
Br      11.45778634       9.33665918     -10.91861218
C       11.48097233       8.43501483      -8.21686740
C       10.96446046       7.83368418      -7.06468955
C        9.66080276       7.31590047      -7.12178847
N        8.89405536       6.67524570      -6.16304252
C        9.31608431       6.38313937      -4.81309112
C        7.67164096       6.34345478      -6.67850889
N        6.68196612       5.71371781      -6.03304619
S        1.45773571       2.07105581      -3.41749741
H        3.28379682       2.36127194      -0.31680081
H        4.43353289       3.74317675      -2.27009070
H        3.75061639       4.71108602      -6.98097767
H        8.82811257       8.05772837     -10.34227108
H       12.48934022       8.84093402      -8.19149427
H       11.55957386       7.77216860      -6.15889647
H        8.50580509       5.91450906      -4.25018817
H        9.59932124       7.32150188      -4.32926688
H       10.17068034       5.70349846      -4.86100244
C       -1.78241508      -1.78241508      -1.78241508
C       -2.63912977      -2.72834305      -1.28620590
C       -3.33312472      -3.38617843      -2.34324852
C       -2.98500693      -2.92506684      -3.60572852
C       -3.45956565      -3.32646831      -4.89082801
H       -2.97943083      -2.89157475      -5.76241361
N       -4.48040724      -4.19924873      -4.94401289
N       -4.83089054      -4.50425240      -6.30946687
C       -5.89635526      -5.29570474      -6.74406316
N       -6.04469914      -5.42265531      -8.09832396
N       -7.03371050      -6.14936122      -8.65274923
C       -7.87837860      -6.74191589      -7.77720734
C       -9.02110932      -7.56218701      -7.97115232
C       -9.68877333      -8.05871786      -9.11016170
C      -10.82115394      -8.85844675      -8.93661212
Br     -11.72545472      -9.52918360     -10.45841938
C      -11.29734297      -9.17006133      -7.66545026
C      -10.65143983      -8.68953522      -6.52185914
C       -9.51346655      -7.88658982      -6.69843533
N       -8.67969517      -7.27575581      -5.77689259
C       -8.82901524      -7.34139757      -4.34190200
C       -7.68970501      -6.58474095      -6.41915866
N       -6.71226125      -5.87578846      -5.84068041
S       -1.79185091      -1.68315279      -3.47128522
H       -2.77685262      -2.94827626      -0.23674070
H       -4.06714096      -4.17197921      -2.20768017
H       -4.31065293      -4.07390750      -7.05811965
H       -9.31542381      -7.81270760     -10.09998061
H      -12.18084458      -9.79285132      -7.54807260
H      -11.02509237      -8.93331407      -5.53223250
H       -8.01224458      -6.81219071      -3.84606702
H       -8.81660305      -8.39224589      -4.04124106
H       -9.78215959      -6.87775849      -4.07526316
C       -1.78241508       1.78241508       1.78241508
C       -1.61056280       1.90805746       3.13505846
C       -2.57421650       2.80206965       3.68626551
C       -3.44703555       3.32639502       2.74237173
C       -4.52756994       4.24513341       2.90415862
H       -5.14491496       4.45320407       2.03530015
N       -4.70264821       4.80965033       4.11137032
N       -5.83591367       5.70184946       4.10684668
C       -6.25775016       6.52557085       5.15280216
N       -7.35310341       7.30728822       4.90528678
N       -7.86052046       8.15287602       5.82242446
C       -7.20743528       8.18284661       7.00721995
C       -7.42877025       8.93384951       8.19182888
C       -8.38199907       9.90021197       8.57544185
C       -8.30392884      10.45847739       9.85380657
Br      -9.57748047      11.75704278      10.37853445
C       -7.30629003      10.07836314      10.74820138
C       -6.35090117       9.12188106      10.39005195
C       -6.43146169       8.56175545       9.10527456
N       -5.64380309       7.61233383       8.47620666
C       -4.49087173       6.96465908       9.05678399
C       -6.10603678       7.37661363       7.21095421
N       -5.58510048       6.52213986       6.32148978
S       -3.06971204       2.69871527       1.17786162
H       -0.84776022       1.40303240       3.71107696
H       -2.64423923       3.06793885       4.73462226
H       -6.37054876       5.81274675       3.25938458
H       -9.15788715      10.19522420       7.87500066
H       -7.25909372      10.52366733      11.73900745
H       -5.57391110       8.82791053      11.08881729
H       -4.07852319       6.22431837       8.36766075
H       -4.80196109       6.46841541       9.97971350
H       -3.73864392       7.72905504       9.26748227
C        1.78241508      -1.78241508       1.78241508
C        1.63984485      -1.87255459       3.14127929
C        2.59532502      -2.77616597       3.69106067
C        3.43310952      -3.34279614       2.73989663
C        4.49559143      -4.28292095       2.89834959
H        5.08715428      -4.52566836       2.02059654
N        4.68613603      -4.82329777       4.11423506
N        5.79798842      -5.74200452       4.10461687
C        6.22532001      -6.55103708       5.15976607
N        7.29607563      -7.36405595       4.90554684
N        7.80537677      -8.19995994       5.83048423
C        7.18007303      -8.18695089       7.03047791
C        7.41198957      -8.91533273       8.22712634
C        8.35139622      -9.89489215       8.61136451
C        8.29076512     -10.42136399       9.90408369
Br       9.54596637     -11.73727399      10.42981734
C        7.32371194      -9.99705087      10.81209175
C        6.38252168      -9.02672486      10.45358765
C        6.44553264      -8.49860161       9.15435746
N        5.66538741      -7.54559275       8.52136342
C        4.54188214      -6.85745568       9.11297698
C        6.10280481      -7.35030135       7.24049846
N        5.58085455      -6.50455396       6.34332160
S        3.03341603      -2.74277420       1.17009869
H        0.90283870      -1.33635261       3.72267827
H        2.68402497      -3.01924875       4.74352662
H        6.30964718      -5.88517325       3.24785965
H        9.10339624     -10.22439166       7.90032412
H        7.28973217     -10.41802218      11.81401416
H        5.62935637      -8.69827918      11.16300338
H        4.13056853      -6.12371137       8.41622241
H        4.88620593      -6.34747338      10.01641068
H        3.77734915      -7.59869540       9.35913668
C       -0.00445707       0.01189536      -1.78238275
H       -0.66409135       0.67374010      -2.43557963
H        0.65740317      -0.63156657      -2.45157240
C       -0.90989263      -0.90692880      -0.91072765
C        0.90977584       0.90977584      -0.90977584
C       -0.00465871       1.77757030       0.00794375
H       -0.66225468       2.44313916      -0.64384735
H        0.64322798       2.43503045       0.67728295
C       -1.78241447       0.00034974      -0.00472694
H       -2.45427497      -0.65498947       0.64260836
H       -2.43311707       0.67328779      -0.65473579
C       -0.91132561       0.90220522       0.91563759
C       -0.01476271      -0.02253852       1.78660255
H       -0.67934791      -0.69751639       2.42135241
H        0.63392994       0.61504881       2.47327442
C        0.01484550      -1.77751727      -0.01636693
H        0.67870853      -2.42144646      -0.68295456
H       -0.62264859      -2.45592969       0.64226336
C        1.78714474       0.01002794       0.00389507
H        2.44202412       0.67113390       0.66197326
H        2.45385902      -0.65136977      -0.64189061
C        0.91606151      -0.90478549       0.90901405
