181
Properties=species:S:1:pos:R:3 pbc="F F F"
C        0.00000000       0.00000000       0.00000000
C        0.88307679       0.88307679      -0.88307679
C        2.20378298       1.15439500      -0.47596736
C        3.03505033       1.96309543      -1.25596779
C        2.50968468       2.46891416      -2.42765170
N        3.16563349       3.29778148      -3.32759808
C        2.34653604       3.62752215      -4.38066435
O        2.59791390       4.33842839      -5.32660286
C        1.01469442       2.90005040      -4.10885923
N        0.01902647       3.00530355      -4.93070718
N       -1.11990555       2.31991928      -4.63706750
C       -2.31276943       2.80581844      -5.22112997
N       -3.22359413       1.89126494      -5.59558711
C       -4.39133939       2.31381585      -6.10054874
C       -5.29324531       1.33700994      -6.50258672
C       -6.54530816       1.65369959      -7.03101744
C       -6.91487646       2.98392150      -7.13689488
C       -6.03716113       3.98734737      -6.72958104
C       -4.74260385       3.68045985      -6.23258298
C       -3.76974625       4.64432405      -5.84099572
C       -2.55001760       4.16741233      -5.33428703
C       -3.95655226       6.11571110      -5.92785067
C       -4.39135262       6.74841753      -7.10517990
C       -4.55325610       8.13686529      -7.16709834
C       -4.24183992       8.92806856      -6.06522281
C       -3.77613507       8.33140564      -4.89880781
C       -3.64573472       6.94110479      -4.82936719
C        1.20072774       2.19204302      -2.83667086
C        0.36206572       1.40354399      -2.07185164
H        2.58597707       0.73875914       0.45444539
H        4.05044378       2.18060744      -0.94239172
H        4.10936017       3.64597457      -3.24599141
H       -1.12144593       1.31790007      -4.84118074
H       -5.01045793       0.29061719      -6.40469893
H       -7.21488437       0.85726293      -7.34343236
H       -6.36873564       5.01985244      -6.79781115
H       -1.76921756       4.85946942      -5.03089812
H       -4.60431494       6.16375129      -7.99775586
H       -4.91177144       8.60039415      -8.08321470
H       -4.35231512      10.00803647      -6.11861466
H       -3.51123859       8.94353705      -4.04095127
H       -3.28589309       6.50336218      -3.90017899
H       -0.65985350       1.20178796      -2.36849919
C       -8.20536674       3.33010896      -7.67391357
C       -9.28615235       3.62004095      -8.12366673
Br     -11.03369127       4.08883647      -8.85087955
C       -0.88307679      -0.88307679      -0.88307679
C       -2.28216224      -0.73573042      -0.81625268
C       -3.11817205      -1.53144823      -1.60449327
C       -2.51595876      -2.44844514      -2.44184664
N       -3.16781223      -3.33481883      -3.28838198
C       -2.26710962      -4.11743080      -3.97018212
O       -2.49760818      -4.99417151      -4.77116547
C       -0.87605809      -3.64939331      -3.49815265
N        0.20288909      -4.19523876      -3.96268752
N        1.39704179      -3.71858773      -3.51553529
C        2.50143438      -4.59586012      -3.61975323
N        3.69175637      -4.04401256      -3.91100175
C        4.77340058      -4.83432868      -3.96209710
C        5.97891776      -4.23014391      -4.29512519
C        7.17430618      -4.94640396      -4.36731109
C        7.16751825      -6.29959419      -4.07386397
C        5.97596030      -6.93241168      -3.72331591
C        4.74490056      -6.22497126      -3.69036828
C        3.47898343      -6.80463640      -3.38992055
C        2.36370569      -5.95175847      -3.36362899
C        3.25744900      -8.24480560      -3.09965292
C        3.74045651      -9.26236761      -3.94033371
C        3.51363479     -10.61259183      -3.65175050
C        2.76073589     -10.97387009      -2.53831725
C        2.24104392      -9.98637821      -1.70874408
C        2.49620243      -8.63912560      -1.98181410
C       -1.12587483      -2.58859475      -2.51497205
C       -0.28536183      -1.81764105      -1.73445846
H       -2.72372587      -0.00207910      -0.14448585
H       -4.19646536      -1.42633371      -1.55064387
H       -4.16572259      -3.43278668      -3.40281687
H        1.72528026      -2.83996430      -3.92295085
H        5.98850217      -3.16328299      -4.51007736
H        8.09239859      -4.43519114      -4.64301837
H        6.00946527      -7.98849829      -3.46989493
H        1.37305143      -6.34386452      -3.15033689
H        4.29774879      -9.01377167      -4.84116932
H        3.91646402     -11.38184395      -4.30645747
H        2.57099481     -12.02223311      -2.32309771
H        1.63498855     -10.25918409      -0.84905419
H        2.08202973      -7.89000041      -1.30967740
H        0.79091990      -1.93412137      -1.76723218
C        8.39236401      -7.05417071      -4.13684909
C        9.41817234      -7.68612855      -4.18959913
Br      11.07681765      -8.70795092      -4.27489147
C       -0.88307679       0.88307679       0.88307679
C       -0.63799109       2.26930680       0.92684746
C       -1.42173129       3.10374122       1.72864104
C       -2.43421645       2.51408729       2.45794680
N       -3.30820163       3.16431133       3.31850008
C       -4.18424042       2.27589695       3.89458517
O       -5.06035202       2.50631275       4.69628038
C       -3.81794580       0.89822743       3.30743082
N       -4.46972556      -0.16678645       3.65209808
N       -4.10427500      -1.34631319       3.07911942
C       -4.44701230      -2.52101201       3.78817869
N       -4.79866323      -3.59249882       3.05709352
C       -5.07520851      -4.74171818       3.68953488
C       -5.46296942      -5.81676691       2.90014884
C       -5.76371633      -7.06680687       3.44249941
C       -5.64921295      -7.25306147       4.80978844
C       -5.24950335      -6.19730955       5.62757349
C       -4.98446244      -4.90806198       5.09403851
C       -4.61869972      -3.76649491       5.86336871
C       -4.35462935      -2.57377259       5.17082501
C       -4.49400976      -3.75078299       7.34378273
C       -5.50915245      -4.23410870       8.18720106
C       -5.37386410      -4.20267320       9.57951664
C       -4.23780157      -3.64671626      10.16036615
C       -3.23329479      -3.12926222       9.35004581
C       -3.35693275      -3.19095771       7.95876223
C       -2.68354567       1.13836352       2.40753243
C       -1.91113980       0.29765952       1.62866203
H        0.16925652       2.70119047       0.33835687
H       -1.23162303       4.17085549       1.77096442
H       -3.31935525       4.15080320       3.53116769
H       -4.42931190      -1.51623684       2.12455982
H       -5.53757320      -5.67621697       1.82350195
H       -6.07415695      -7.87682900       2.78848297
H       -5.14054752      -6.38405001       6.69243045
H       -4.08192658      -1.67055918       5.70978259
H       -6.42802166      -4.63784684       7.76701739
H       -6.16448608      -4.60269170      10.21004303
H       -4.13991219      -3.60773926      11.24216308
H       -2.35250522      -2.67493674       9.79568126
H       -2.55045221      -2.78432884       7.35152472
H       -2.08173186      -0.77150501       1.60020681
C       -5.94923396      -8.53769393       5.38711576
C       -6.20050155      -9.61357362       5.87062740
Br      -6.60678000     -11.35318007       6.65242482
C        0.88307679      -0.88307679       0.88307679
C        0.97454555      -2.25969075       0.59990904
C        1.76700312      -3.09600734       1.39110310
C        2.44885523      -2.51592017       2.44147514
N        3.27165247      -3.17375592       3.34560465
C        3.78127580      -2.29874038       4.27470636
O        4.51651732      -2.54255340       5.20387443
C        3.21434000      -0.91699476       3.89226929
N        3.51252911       0.13864902       4.58115710
N        2.99128623       1.32860581       4.17440082
C        2.89914451       2.34178065       5.15681512
N        3.11655657       3.60448671       4.75118807
C        2.98224944       4.59912780       5.63990355
C        3.24435070       5.88615881       5.18815946
C        3.12613071       7.00302621       6.01630436
C        2.71012511       6.82976447       7.32557928
C        2.42656942       5.55197970       7.80517756
C        2.58649532       4.40253544       6.98647910
C        2.36515694       3.06124729       7.41166387
C        2.53331727       2.04204491       6.46040940
C        1.96628460       2.66666687       8.78739178
C        2.65432277       3.11866758       9.92658963
C        2.26604395       2.72826012      11.21292371
C        1.20716823       1.84173076      11.38601399
C        0.53110160       1.35134258      10.27431936
C        0.90082563       1.76806130       8.99197293
C        2.36522334      -1.14689313       2.71732516
C        1.57764713      -0.30794424       1.95186998
H        0.42306712      -2.68411269      -0.23688899
H        1.83438765      -4.15806922       1.18098607
H        3.47849971      -4.16142118       3.36140524
H        3.44286895       1.78201102       3.37677696
H        3.55565186       6.02542241       4.15462873
H        3.35236805       7.99050954       5.62395241
H        2.07374344       5.45291198       8.82809649
H        2.38745396       1.00077001       6.73446603
H        3.51227919       3.78008173       9.82499475
H        2.80129456       3.10907080      12.07961364
H        0.91585765       1.52593210      12.38441045
H       -0.28334738       0.64298115      10.39957827
H        0.34760530       1.37232241       8.14236519
H        1.48853871       0.74899247       2.17088741
C        2.57619277       7.97100533       8.19346834
C        2.46402444       8.92679455       8.92032544
Br       2.28265774      10.47222488      10.09559188
