137
Properties=species:S:1:pos:R:3 pbc="F F F"
C        0.00000000       0.00000000       0.00000000
C        0.88196133       0.88196133      -0.88196133
C        0.87262353       2.26529361      -0.70124570
C        1.67680800       3.07757979      -1.50362013
C        2.48500888       2.49874672      -2.48295595
O        3.27726360       3.29458617      -3.26169297
C        2.49207553       1.11047104      -2.66501217
C        3.34432088       0.50464022      -3.71197535
N        3.42621245      -0.78190587      -3.85638058
N        4.20239406      -1.26998868      -4.89828733
C        4.75827295      -2.53159953      -4.68567166
N        5.49889187      -3.22440555      -5.50117740
C        5.71433520      -2.58008365      -6.71989590
C        5.15155960      -1.37780118      -7.03499937
N        5.54594969      -1.05529214      -8.30326253
H        5.26720392      -0.21856483      -8.79996515
C        6.38917715      -2.03596524      -8.79209675
C        7.04835998      -2.12610232     -10.02368557
C        7.85018692      -3.25087204     -10.24616325
C        7.97793547      -4.24155253      -9.27363684
Br       9.07535510      -5.74525104      -9.61760567
C        7.31338625      -4.14659387      -8.04774314
C        6.50633005      -3.02006971      -7.80097482
C        4.30100298      -0.64240729      -6.15266191
O        3.73208807       0.38641210      -6.50732192
C        1.68652455       0.29780749      -1.85874368
H        0.24342030       2.71868299       0.06114943
H        1.66047622       4.15262450      -1.34864492
H        3.11629577       4.22810793      -3.04252654
H        3.92519410       1.20780544      -4.33217421
H        4.52524807      -2.94413192      -3.68954295
H        6.94817093      -1.35568237     -10.78165649
H        8.37596140      -3.34319916     -11.19371005
H        7.41157104      -4.91592607      -7.28797690
H        1.68458719      -0.78066005      -1.99466127
C       -0.88196133      -0.88196133      -0.88196133
C       -0.44556106      -2.15939214      -1.23420964
C       -1.24696081      -2.97127462      -2.03977249
C       -2.48066231      -2.49779672      -2.48825251
O       -3.26698756      -3.29677912      -3.26977606
C       -2.91682351      -1.21476824      -2.13596699
C       -4.22183640      -0.71581848      -2.62328156
N       -4.68424887       0.43901288      -2.25545117
N       -5.88880392       0.85972873      -2.80161753
C       -6.63553675       1.72398908      -2.00079742
N       -7.77822132       2.28128160      -2.27872400
C       -8.25223269       1.94540835      -3.54732311
C       -7.55270245       1.16337484      -4.41943018
N       -8.28865823       1.06134107      -5.56660291
H       -8.00499065       0.54783361      -6.39144720
C       -9.47737459       1.75213148      -5.42006555
C      -10.54371130       1.91071397      -6.31294590
C      -11.63475678       2.67573346      -5.88645481
C      -11.64821497       3.25803109      -4.61983590
Br     -13.14672554       4.28353244      -4.08451663
C      -10.57793671       3.09861840      -3.73521721
C       -9.47279699       2.32762126      -4.14205943
C       -6.27616365       0.59125436      -4.12634831
O       -5.63107741      -0.02348226      -4.97126242
C       -2.11286527      -0.40306156      -1.32714890
H        0.51560872      -2.53045146      -0.88611112
H       -0.89435449      -3.96446291      -2.30292824
H       -2.79864671      -4.12709586      -3.46118767
H       -4.78529359      -1.39548199      -3.28439816
H       -6.16752359       1.91778242      -1.02091793
H      -10.53310977       1.45862741      -7.29966268
H      -12.47777055       2.81135689      -6.56005863
H      -10.58580354       3.55000631      -2.74782464
H       -2.44303342       0.59494975      -1.05050474
C       -0.88196133       0.88196133       0.88196133
C       -2.25077379       0.62493150       0.96345755
C       -3.06292800       1.42686461       1.76821531
C       -2.49858231       2.48220433       2.48592491
O       -3.29362032       3.26078722       3.27913520
C       -1.12504614       2.74071056       2.40180204
C       -0.53531053       3.86752253       3.15810338
N        0.74315516       4.08725669       3.15658564
N        1.21162083       5.19808500       3.84422854
C        2.51225480       5.08827257       4.33632733
N        3.19604719       5.98265419       4.98905672
C        2.49449081       7.17445448       5.17418378
C        1.24662415       7.38929477       4.66608717
N        0.87282147       8.65869795       5.00804359
H       -0.00560671       9.09132279       4.75167474
C        1.86830068       9.24934939       5.76425995
C        1.92256716      10.52044502       6.34806537
C        3.07495508      10.85113612       7.06929708
C        4.12630672       9.94390165       7.19242486
Br       5.66561385      10.43387757       8.17944602
C        4.06660529       8.67790302       6.60323780
C        2.91359931       8.32259749       5.87823698
C        0.51821869       6.41952328       3.90995301
O       -0.55939632       6.68300773       3.38341804
C       -0.31236367       1.93483698       1.59587507
H       -2.69287786      -0.19678660       0.40486259
H       -4.12634044       1.21209924       1.82330596
H       -4.22020019       2.98139853       3.18533152
H       -1.24037789       4.48084422       3.74395163
H        2.96879514       4.10452088       4.13493335
H        1.10482118      11.22758587       6.25138036
H        3.14063780      11.83143450       7.53567560
H        4.88326132       7.96879552       6.69808768
H        0.75456571       2.12972783       1.52342629
C        0.88196133      -0.88196133       0.88196133
C        2.10510190      -0.39277589       1.34128506
C        2.91620568      -1.19341852       2.14838372
C        2.49705487      -2.47994103       2.48971565
O        3.28845315      -3.25889240       3.28619719
C        1.27028973      -2.97080580       2.02646320
C        0.83688515      -4.33954680       2.38450450
N       -0.32487843      -4.79521922       2.03034637
N       -0.63360306      -6.10866082       2.35563495
C       -1.99183452      -6.37511666       2.52906296
N       -2.55103465      -7.51594651       2.81075185
C       -1.63067926      -8.55823669       2.92659003
C       -0.29403217      -8.39794474       2.70484522
N        0.30325642      -9.61542563       2.87523803
H        1.29288037      -9.79467539       2.76104848
C       -0.64596003     -10.55288016       3.23838852
C       -0.50195997     -11.91341108       3.53449213
C       -1.65666203     -12.62557697       3.87656318
C       -2.90008894     -11.99623407       3.91387465
Br      -4.43534637     -12.99912027       4.38393583
C       -3.03664502     -10.63819204       3.61298850
C       -1.88659979      -9.90159223       3.27224272
C        0.30927511      -7.15172817       2.35025431
O        1.49944042      -7.06611827       2.06026341
C        0.45795358      -2.16623554       1.21888660
H        2.43397503       0.60941058       1.07638941
H        3.86437721      -0.79704341       2.50032502
H        4.11964640      -2.79140377       3.47588007
H        1.54273631      -4.92846566       2.99397177
H       -2.62563398      -5.47929547       2.41699760
H        0.46572155     -12.40411091       3.50431259
H       -1.57138007     -13.68337208       4.11448028
H       -4.00341285     -10.14496658       3.64206814
H       -0.49502853      -2.54018457       0.85343238
