166
Properties=species:S:1:pos:R:3 pbc="F F F"
C        1.79309729       1.79309729      -1.79309729
C        1.31376729       3.02931560      -2.22375064
C        2.09468117       3.85920238      -3.03675890
C        3.36715194       3.40005332      -3.39727567
N        4.34274214       3.99405977      -4.17781572
H        4.26717785       4.90192078      -4.61877501
C        5.43479207       3.17207441      -4.25613710
C        5.16504037       2.06136761      -3.51170212
N        6.07868296       1.02300492      -3.33102999
C        7.19827166       1.21654773      -3.96308882
N        7.53812092       2.28952684      -4.78622978
N        8.82880246       2.26715188      -5.29206203
C        9.01647010       2.74919360      -6.48071516
C       10.36977689       2.77892358      -7.08001152
C       10.45690588       2.99848688      -8.46050130
C       11.70254167       2.99904417      -9.08918242
C       12.86202641       2.79307561      -8.34080144
C       12.77882243       2.58691140      -6.96092591
C       11.53400004       2.57405280      -6.32320154
O       11.48991081       2.36689935      -4.96843806
C        6.66691407       3.38467023      -4.94843501
O        6.90488231       4.41156000      -5.57739482
C        3.86793244       2.16355458      -2.96854141
C        3.06629325       1.34368879      -2.15230938
H        0.32142555       3.36310201      -1.92924480
H        1.72019631       4.82246968      -3.36887303
H        7.99894898       0.46288261      -3.88300216
H        8.19060860       3.11042009      -7.11828841
H        9.56278214       3.15494245      -9.05987523
H       11.77223004       3.15567535     -10.16347434
H       13.82803201       2.79382302      -8.84076336
H       10.55215955       2.32446970      -4.69217754
H        3.44438372       0.38298128      -1.81638732
C       14.00311453       2.38567605      -6.23002703
C       15.02845917       2.21714144      -5.61789921
Br      16.68635472       1.94463523      -4.62814031
C       -1.79309729      -1.79309729      -1.79309729
C       -2.67508886      -1.19791990      -2.69382477
C       -3.50052496      -1.97737821      -3.51273927
C       -3.40498645      -3.36876529      -3.39072919
N       -4.08458828      -4.37234886      -4.05768049
H       -4.78465556      -4.22882707      -4.77439101
C       -3.65923734      -5.59411533      -3.60965091
C       -2.69569227      -5.37249185      -2.66992598
N       -2.00586684      -6.40012113      -2.02672989
C       -2.39402103      -7.58335614      -2.40053105
N       -3.40299670      -7.90227351      -3.30860733
N       -3.56997156      -9.25488060      -3.56316421
C       -4.77305695      -9.67836057      -3.79496135
C       -5.02801178     -11.10532559      -4.09537462
C       -6.35211545     -11.55368684      -4.01009175
C       -6.64999005     -12.89655820      -4.24422000
C       -5.63065574     -13.79003731      -4.57521040
C       -4.31028059     -13.34243837      -4.67394078
C       -4.00012875     -12.00038828      -4.43073735
O       -2.69377258     -11.59681243      -4.53466321
C       -4.08323925      -6.89537622      -4.02140385
O       -4.92180347      -7.07175389      -4.90027977
C       -2.51979387      -3.98443803      -2.49579653
C       -1.69913400      -3.18253914      -1.68061829
H       -2.72988658      -0.11433684      -2.76954895
H       -4.18480704      -1.51165317      -4.21507880
H       -1.90920574      -8.47195893      -1.96366909
H       -5.66074984      -9.02467625      -3.73389101
H       -7.15805238     -10.87197147      -3.74757596
H       -7.67566528     -13.25046139      -4.16525305
H       -5.87324284     -14.83513490      -4.75424065
H       -2.63914285     -10.65507122      -4.27459272
H       -1.01128042      -3.64986459      -0.98260731
C       -3.29377676     -14.30010257      -5.02493827
C       -2.44245480     -15.10214634      -5.31889867
Br      -1.06593920     -16.39898328      -5.79420778
C       -1.79309729       1.79309729       1.79309729
C       -1.19820001       2.66186463       2.70676889
C       -1.97781747       3.47978761       3.53303737
C       -3.36908374       3.38995225       3.40544494
N       -4.37278671       4.06391715       4.07791376
H       -4.22929906       4.76237299       4.79620159
C       -5.59427868       3.65152555       3.61719935
C       -5.37181095       2.72783768       2.63846147
N       -6.39766611       2.12176921       1.91328254
C       -7.58084072       2.51277476       2.28429274
N       -7.90221051       3.40597113       3.30569590
N       -9.25242008       3.68613342       3.44946287
C       -9.69682145       3.90151250       4.64804491
C      -11.12228704       4.22725584       4.87916911
C      -11.60088921       4.12367617       6.19132868
C      -12.94463142       4.38043718       6.46569966
C      -13.80864493       4.75218356       5.43507495
C      -13.33060067       4.86914214       4.12691693
C      -11.98760593       4.60358779       3.84006065
O      -11.55375783       4.72639489       2.54509550
C       -6.89539697       4.08225945       4.02236289
O       -7.07122456       4.94679363       4.87581894
C       -3.98427505       2.52748817       2.48826521
C       -3.18225151       1.71271322       1.66732670
H       -0.11469546       2.71295575       2.78612116
H       -1.51223701       4.15724390       4.24205810
H       -8.46779898       2.10559823       1.77143654
H       -9.06393065       3.80753646       5.54784999
H      -10.94247681       3.82947158       7.00565141
H      -13.32222999       4.28744573       7.48170400
H      -14.85472048       4.94860145       5.65929647
H      -10.61677268       4.44723007       2.50480405
H       -3.64926275       1.03969372       0.95479585
C      -14.25840750       5.26221486       3.09819524
C      -15.03544572       5.59141327       2.23664082
Br     -16.29185081       6.12369925       0.84358020
C        1.79309729      -1.79309729       1.79309729
C        3.06001972      -2.16280413       1.34400969
C        3.89100394      -2.97406487       2.12557364
C        3.40109985      -3.39609085       3.36729024
N        3.98854252      -4.19017775       4.33589737
H        4.91381959      -4.59620636       4.27784769
C        3.13235618      -4.33649515       5.39415225
C        2.00556490      -3.62197198       5.11057322
N        0.93013850      -3.51072097       5.99185839
C        1.10724011      -4.17567385       7.09499426
N        2.19675054      -4.97265064       7.44447637
N        2.14768367      -5.52524188       8.71509083
C        2.66550778      -6.70237211       8.87849896
C        2.66967296      -7.34875529      10.21028374
C        2.93578277      -8.72299840      10.25711289
C        2.91562646      -9.39585733      11.47928446
C        2.64247106      -8.69747738      12.65595501
C        2.38962882      -7.32352245      12.61350846
C        2.39714435      -6.64208984      11.39202019
O        2.14285768      -5.29466253      11.38772802
C        3.32673988      -5.06501149       6.60826795
O        4.36675695      -5.66597874       6.86110144
C        2.13321896      -3.02908519       3.83772429
C        1.31284908      -2.21350689       3.03593545
H        3.41733882      -1.82119335       0.37524020
H        4.87810578      -3.25865783       1.77477541
H        0.32372300      -4.15087766       7.87023309
H        3.07809405      -7.29672191       8.04450115
H        3.14485599      -9.28386930       9.34887452
H        3.10843220     -10.46585229      11.51709524
H        2.62760273      -9.23167310      13.60334256
H        2.12319107      -4.98635964      10.45925609
H        0.32804059      -1.92515180       3.39055994
C        2.11957308      -6.64477828      13.85446625
C        1.89340139      -6.07633003      14.89376840
Br       1.52770089      -5.15719729      16.57423208
C       -0.00445707       0.01189536      -1.78238275
H       -0.66409135       0.67374010      -2.43557963
H        0.65740317      -0.63156657      -2.45157240
C       -0.90989263      -0.90692880      -0.91072765
C        0.90977584       0.90977584      -0.90977584
C       -0.00465871       1.77757030       0.00794375
H       -0.66225468       2.44313916      -0.64384735
H        0.64322798       2.43503045       0.67728295
C       -1.78241447       0.00034974      -0.00472694
H       -2.45427497      -0.65498947       0.64260836
H       -2.43311707       0.67328779      -0.65473579
C       -0.91132561       0.90220522       0.91563759
C       -0.01476271      -0.02253852       1.78660255
H       -0.67934791      -0.69751639       2.42135241
H        0.63392994       0.61504881       2.47327442
C        0.01484550      -1.77751727      -0.01636693
H        0.67870853      -2.42144646      -0.68295456
H       -0.62264859      -2.45592969       0.64226336
C        1.78714474       0.01002794       0.00389507
H        2.44202412       0.67113390       0.66197326
H        2.45385902      -0.65136977      -0.64189061
C        0.91606151      -0.90478549       0.90901405
