186
Properties=species:S:1:pos:R:3 pbc="F F F"
C        1.77684298       1.77684298      -1.77684298
C        2.97364169       2.33640348      -1.39701502
C        3.43087059       3.07986001      -2.51212306
C        2.49421957       2.91766865      -3.51937873
O        1.47833343       2.12113094      -3.05702014
C        2.43596745       3.45053520      -4.86886428
N        1.77648392       2.95999393      -5.87877781
N        1.04181512       1.83201642      -5.69408984
C        0.33541528       1.29657091      -6.78287768
N       -0.78519789       0.60462217      -6.51604509
C       -1.45275658       0.03625081      -7.52964271
C       -2.62739497      -0.63295073      -7.21125985
C       -3.39943930      -1.27899921      -8.17748211
C       -2.96826879      -1.28072399      -9.49300808
Br      -3.98676315      -2.16253241     -10.81722597
C       -1.78781748      -0.62643469      -9.84306465
C       -1.02193781       0.08187876      -8.87871774
C        0.15718434       0.82824085      -9.16109580
C        0.81130289       1.43763714      -8.07835297
C        0.74332537       1.01009586     -10.51495900
C       -0.02627766       1.42413530     -11.61518620
C        0.54813318       1.60690803     -12.87836290
C        1.91493827       1.42051568     -13.05826727
C        2.70647169       1.04163014     -11.98032504
C        2.12442980       0.82862578     -10.72687077
C        3.23801815       4.70458942      -5.14038795
H        3.45790689       2.22622650      -0.43669905
H        4.34618763       3.65201908      -2.57781176
H        0.53667064       1.68418094      -4.81891545
H       -2.95543547      -0.64816713      -6.17370123
H       -4.31833421      -1.77926730      -7.88544534
H       -1.46001461      -0.67173723     -10.87815388
H        1.71199400       2.02361253      -8.23843841
H       -1.09015967       1.61859652     -11.50083164
H       -0.07408100       1.90700217     -13.71788568
H        2.36459853       1.57788523     -14.03470554
H        3.77767408       0.91301305     -12.10781304
H        2.77023023       0.52488113      -9.90381379
H        2.86755460       5.51755555      -4.50827457
H        3.13993314       5.00410585      -6.18855894
H        4.29615640       4.53139752      -4.92572144
C       -1.77684298      -1.77684298      -1.77684298
C       -1.41022332      -2.99193472      -2.30490214
C       -2.51941862      -3.44193989      -3.06149515
C       -3.51061068      -2.48250834      -2.93814792
O       -3.04370126      -1.46011170      -2.15267155
C       -4.84786566      -2.40836871      -3.49913256
N       -5.85377963      -1.71932862      -3.04214741
N       -5.67663804      -0.96587981      -1.92540353
C       -6.76133657      -0.22748043      -1.42604687
N       -6.48570113       0.90135536      -0.75112360
C       -7.49667170       1.60010771      -0.21657295
C       -7.16796928       2.78147132       0.43558381
C       -8.13101249       3.58529689       1.04667199
C       -9.45473339       3.18030533       1.03041277
Br     -10.77532072       4.24229931       1.86509100
C       -9.81550841       1.99405680       0.39263913
C       -8.85298634       1.19517638      -0.28084873
C       -9.14426520       0.00706586      -1.00932165
C       -8.06309626      -0.68044313      -1.58375361
C      -10.50580489      -0.55577516      -1.20680018
C      -11.58191938       0.22690454      -1.65802901
C      -12.85255427      -0.32601988      -1.85482996
C      -13.06359586      -1.68497523      -1.64515012
C      -12.00950513      -2.48984467      -1.22907708
C      -10.74903197      -1.92849137      -1.00240299
C       -5.11067638      -3.22999751      -4.74232164
H       -0.46221820      -3.49274790      -2.16586633
H       -2.59222033      -4.36711977      -3.61667837
H       -4.79455643      -0.47523746      -1.76997313
H       -6.12451676       3.08920308       0.46521506
H       -7.83046132       4.50813642       1.53448107
H      -10.85768258       1.68773273       0.42354780
H       -8.22968981      -1.58941747      -2.15493767
H      -11.44234338       1.28418897      -1.87111407
H      -13.67328625       0.30647745      -2.18399804
H      -14.04559533      -2.11834819      -1.81324578
H      -12.16105682      -3.55551342      -1.08192994
H       -9.94530637      -2.58416696      -0.66945183
H       -4.45530241      -2.88853521      -5.54954710
H       -6.15054146      -3.11728984      -5.06476664
H       -4.92082659      -4.28846476      -4.54398400
C       -1.77684298       1.77684298       1.77684298
C       -2.71580268       2.67102666       1.32023085
C       -3.27670713       3.27386209       2.47228444
C       -2.66012034       2.69964433       3.57150227
O       -1.73559946       1.78583967       3.13504538
C       -2.82782515       2.93265122       4.99489056
N       -2.53871626       2.11250191       5.96403749
N       -2.01249227       0.89786462       5.65756449
C       -1.70643831       0.00849830       6.69992726
N       -0.70936110      -0.86873939       6.49484765
C       -0.42844277      -1.76557533       7.45026950
C        0.63684093      -2.62429209       7.21204716
C        1.01362238      -3.61110821       8.12377420
C        0.28568804      -3.76192582       9.29162915
Br       0.76509918      -5.10137886      10.53440846
C       -0.79563943      -2.92208717       9.55526022
C       -1.15502403      -1.87789611       8.66153078
C       -2.20102972      -0.93777463       8.88326590
C       -2.44457950       0.00814911       7.87456439
C       -3.05027883      -0.88395810      10.10205950
C       -2.50409522      -0.88767144      11.39662006
C       -3.32012396      -0.81835600      12.53163615
C       -4.69946799      -0.70040799      12.39466122
C       -5.26512207      -0.66225488      11.12555969
C       -4.45000097      -0.76403858       9.99396395
C       -3.41482739       4.26675354       5.40141459
H       -2.96585883       2.86796399       0.28700962
H       -4.05303046       4.02633436       2.49665365
H       -1.34926259       0.80380702       4.88669742
H        1.19633615      -2.51820686       6.28464163
H        1.86181504      -4.25249277       7.90215165
H       -1.36596246      -3.08531737      10.46575696
H       -3.22711358       0.75206179       7.99486958
H       -1.42714507      -0.93745485      11.53957827
H       -2.87314552      -0.84469282      13.52235415
H       -5.33252745      -0.63016582      13.27482767
H       -6.33952980      -0.55060487      11.00957525
H       -4.92409023      -0.73865125       9.01348618
H       -2.75340840       5.07228380       5.06769252
H       -3.51684455       4.32619721       6.48955618
H       -4.40281339       4.39871721       4.95174476
C        1.77684298      -1.77684298       1.77684298
C        1.43417810      -3.02015155       2.25273054
C        2.53273416      -3.45907501       3.03104449
C        3.49474653      -2.46447112       2.97204930
O        3.01956552      -1.43201899       2.20490000
C        4.80991171      -2.36589138       3.57956384
N        5.80647624      -1.62974732       3.17903211
N        5.64047008      -0.84548874       2.08196256
C        6.71545402      -0.05607101       1.64333884
N        6.42419996       1.08519803       0.99646743
C        7.42800155       1.83380247       0.51893786
C        7.08124374       3.02506290      -0.10526670
C        8.03613228       3.87963577      -0.65745291
C        9.37144081       3.51738954      -0.61003598
Br      10.68208661       4.64890525      -1.36525094
C        9.75086547       2.32276891       0.00071592
C        8.79431212       1.47106510       0.61541168
C        9.10144223       0.26930048       1.31437924
C        8.02585123      -0.47167943       1.82976234
C       10.47394316      -0.25546257       1.53897449
C       11.50809954       0.54610758       2.05105188
C       12.78948440       0.02833037       2.27225007
C       13.05254886      -1.31530515       2.02586720
C       12.03999670      -2.13950419       1.54892599
C       10.76944758      -1.61197889       1.29849987
C        5.05968194      -3.21971308       4.80360051
H        0.50845629      -3.54645821       2.06591793
H        2.61843716      -4.39946894       3.55811237
H        4.74796169      -0.37873226       1.91307307
H        6.02958646       3.29967471      -0.15981313
H        7.72082408       4.80806539      -1.12491485
H       10.80315843       2.05154726      -0.00520913
H        8.20418425      -1.39338457       2.37647612
H       11.32640543       1.59059873       2.29346178
H       13.57751076       0.67569753       2.64899362
H       14.04254084      -1.72204360       2.21260486
H       12.23179953      -3.19418888       1.37251176
H        9.99930706      -2.28182210       0.91779599
H        4.36746408      -2.92684199       5.59907865
H        6.08421110      -3.08425355       5.16413328
H        4.91186959      -4.27654300       4.56486277
C       -0.00445707       0.01189536      -1.78238275
H       -0.66409135       0.67374010      -2.43557963
H        0.65740317      -0.63156657      -2.45157240
C       -0.90989263      -0.90692880      -0.91072765
C        0.90977584       0.90977584      -0.90977584
C       -0.00465871       1.77757030       0.00794375
H       -0.66225468       2.44313916      -0.64384735
H        0.64322798       2.43503045       0.67728295
C       -1.78241447       0.00034974      -0.00472694
H       -2.45427497      -0.65498947       0.64260836
H       -2.43311707       0.67328779      -0.65473579
C       -0.91132561       0.90220522       0.91563759
C       -0.01476271      -0.02253852       1.78660255
H       -0.67934791      -0.69751639       2.42135241
H        0.63392994       0.61504881       2.47327442
C        0.01484550      -1.77751727      -0.01636693
H        0.67870853      -2.42144646      -0.68295456
H       -0.62264859      -2.45592969       0.64226336
C        1.78714474       0.01002794       0.00389507
H        2.44202412       0.67113390       0.66197326
H        2.45385902      -0.65136977      -0.64189061
C        0.91606151      -0.90478549       0.90901405
