165
Properties=species:S:1:pos:R:3 pbc="F F F"
C        0.00000000       0.00000000       0.00000000
C        0.86693895       0.86693895      -0.86693895
C        2.06373767       1.42649945      -0.48711099
C        2.52096656       2.16995599      -1.60221904
C        1.58431555       2.00776462      -2.60947471
O        0.56842940       1.21122691      -2.14711612
C        1.52606343       2.54063117      -3.95896026
N        0.86657990       2.05008990      -4.96887379
N        0.13191109       0.92211240      -4.78418581
C       -0.57448875       0.38666688      -5.87297366
N       -1.69510192      -0.30528186      -5.60614106
C       -2.36266060      -0.87365321      -6.61973869
C       -3.53729900      -1.54285475      -6.30135582
C       -4.30934332      -2.18890323      -7.26757808
C       -3.87817282      -2.19062802      -8.58310405
Br      -4.89666717      -3.07243643      -9.90732195
C       -2.69772150      -1.53633871      -8.93316062
C       -1.93184184      -0.82802526      -7.96881371
C       -0.75271969      -0.08166317      -8.25119178
C       -0.09860114       0.52773311      -7.16844894
C       -0.16657865       0.10019183      -9.60505498
C       -0.93618168       0.51423128     -10.70528217
C       -0.36177084       0.69700400     -11.96845887
C        1.00503424       0.51061166     -12.14836324
C        1.79656767       0.13172612     -11.07042101
C        1.21452577      -0.08127825      -9.81696674
C        2.32811413       3.79468540      -4.23048393
H        2.54800286       1.31632247       0.47320498
H        3.43628360       2.74211505      -1.66790773
H       -0.37323339       0.77427692      -3.90901142
H       -3.86533950      -1.55807116      -5.26379720
H       -5.22823823      -2.68917132      -6.97554132
H       -2.36991863      -1.58164126      -9.96824986
H        0.80208998       1.11370851      -7.32853438
H       -2.00006369       0.70869249     -10.59092762
H       -0.98398503       0.99709814     -12.80798166
H        1.45469451       0.66798120     -13.12480151
H        2.86777005       0.00310903     -11.19790902
H        1.86032621      -0.38502289      -8.99390977
H        1.95765057       4.60765153      -3.59837055
H        2.23002912       4.09420183      -5.27865491
H        3.38625237       3.62149349      -4.01581742
C       -0.86693895      -0.86693895      -0.86693895
C       -2.00355101      -0.45349588      -1.52030123
C       -2.50283119      -1.59209017      -2.19822023
C       -1.63103439      -2.63556785      -1.93495264
O       -0.63263310      -2.18297481      -1.11116452
C       -1.64497082      -4.02537174      -2.35531230
N       -0.62777533      -4.83549802      -2.42227024
N        0.59883292      -4.37605481      -2.06098741
C        1.69882909      -5.24501347      -2.13896742
N        2.71720445      -5.03528215      -1.28767959
C        3.80410818      -5.81466956      -1.37286349
C        4.81327881      -5.58870282      -0.44577807
C        5.99938360      -6.32366637      -0.44504876
C        6.19298098      -7.29025053      -1.41703367
Br       7.79711508      -8.28738024      -1.44795318
C        5.20298821      -7.53393328      -2.36815534
C        3.96843130      -6.83134932      -2.34602860
C        2.88213072      -7.06188521      -3.23705443
C        1.74665183      -6.24798902      -3.09624374
C        2.86209299      -8.09957160      -4.30118955
C        3.20377992      -9.43879607      -4.04831561
C        3.16135755     -10.40484959      -5.06019999
C        2.73431400     -10.05988368      -6.33843947
C        2.35978435      -8.74903887      -6.60946029
C        2.43385095      -7.77929608      -5.60476914
C       -2.98205829      -4.59572112      -2.77550405
H       -2.42385982       0.54254065      -1.50980118
H       -3.38591699      -1.63977726      -2.82061215
H        0.69576700      -3.72887178      -1.27695017
H        4.66880433      -4.81505058       0.30585971
H        6.75664563      -6.12190389       0.30712650
H        5.39726204      -8.27743519      -3.13651681
H        0.88704707      -6.38512714      -3.74625280
H        3.50270201      -9.75168259      -3.05057583
H        3.45155065     -11.42981091      -4.84283451
H        2.68549381     -10.81244703      -7.12052400
H        2.00651401      -8.47555154      -7.59975057
H        2.14063989      -6.75931288      -5.85054009
H       -3.67579028      -4.55797619      -1.92990618
H       -2.87299581      -5.63776102      -3.09212904
H       -3.39427479      -4.02029805      -3.60899043
C       -0.86693895       0.86693895       0.86693895
C       -2.12104831       0.53481762       1.32148219
C       -2.56911283       1.64229705       2.08173171
C       -1.55365539       2.58395252       2.06394697
O       -0.51447361       2.10220214       1.31009669
C       -1.46029806       3.90421573       2.66114106
N       -0.37312333       4.55810974       2.95431052
N        0.82822314       3.98494906       2.68148338
C        2.00231814       4.68441722       3.00305272
N        3.09331620       4.44223688       2.25683661
C        4.24305724       5.05445536       2.57202675
C        5.33318938       4.80641735       1.74797410
C        6.58678855       5.37178281       1.98433727
C        6.76123897       6.18317667       3.09236552
Br       8.45277268       6.94714187       3.44384916
C        5.68885673       6.44327418       3.94468296
C        4.39441908       5.91891050       3.68445520
C        3.23372196       6.18595117       4.46457971
C        2.03953870       5.55277003       4.08434960
C        3.19399720       7.08496550       5.64769986
C        3.72108128       8.38707078       5.61734227
C        3.65788315       9.22470283       6.73687235
C        3.02686211       8.79212445       7.89874679
C        2.46836937       7.52019405       7.94689013
C        2.56131798       6.67387174       6.83766051
C       -2.76520359       4.59432677       2.99375310
H       -2.65015173      -0.38817403       1.12914266
H       -3.51549056       1.73384134       2.59697449
H        0.95212836       3.42712657       1.83505674
H        5.20036505       4.15249271       0.88825888
H        7.40855210       5.16060032       1.30608354
H        5.86492387       7.05893098       4.82268286
H        1.12308564       5.72597605       4.64144245
H        4.18488434       8.77223508       4.71220568
H        4.09268708      10.22023001       6.69355185
H        2.96293142       9.44747298       8.76293566
H        1.95669657       7.18191738       8.84356729
H        2.12034401       5.68031273       6.90924436
H       -3.33969709       4.74881632       2.07515924
H       -2.57778634       5.56813564       3.45696389
H       -3.34942468       3.98516124       3.68897736
C        0.86693895      -0.86693895       0.86693895
C        2.24159108      -0.87201114       0.86374589
C        2.63280291      -1.84424884       1.81608984
C        1.47234104      -2.36714592       2.36206792
O        0.39224938      -1.76583742       1.76868564
C        1.26421470      -3.39228228       3.36915787
N        0.21247953      -3.55330731       4.11975675
N       -0.83243756      -2.69719781       3.97344906
C       -1.96496698      -2.86378047       4.78633831
N       -3.14819089      -2.46144931       4.29249887
C       -4.23936896      -2.55827417       5.06451966
C       -5.44634629      -2.16990525       4.49764311
C       -6.64695017      -2.20866350       5.20761820
C       -6.63419937      -2.61866958       6.52983301
Br      -8.24363064      -2.66401570       7.51783329
C       -5.43689703      -3.00519416       7.13080328
C       -4.21708444      -3.02322283       6.40280823
C       -2.96515488      -3.46316652       6.91879728
C       -1.85009510      -3.37796623       6.06970979
C       -2.75373452      -4.00608074       8.28632194
C       -3.56173955      -5.02320053       8.82187079
C       -3.33517607      -5.53358593      10.10528217
C       -2.26730303      -5.06655874      10.86475343
C       -1.43213372      -4.08305079      10.34779773
C       -1.68022627      -3.55231052       9.07813002
C        2.39481444      -4.37483292       3.58363609
H        2.88455078      -0.25513270       0.25143687
H        3.64406148      -2.11756869       2.08467622
H       -1.09147363      -2.35463712       3.04689146
H       -5.45259408      -1.82875195       3.46422868
H       -7.56992470      -1.90779785       4.72025862
H       -5.45457660      -3.29261012       8.17865645
H       -0.87205976      -3.70543561       6.41095702
H       -4.38011327      -5.44016093       8.23950875
H       -3.98862152      -6.30551981      10.50419648
H       -2.08076239      -5.47356862      11.85467099
H       -0.58444616      -3.72682084      10.92641342
H       -1.01221272      -2.77732588       8.70409992
H        2.57365987      -4.93150251       2.65851028
H        2.14093848      -5.08585007       4.37609731
H        3.30748591      -3.84535556       3.87072181
