173
Properties=species:S:1:pos:R:3 pbc="F F F"
C        0.00000000       0.00000000       0.00000000
C        0.86693895       0.86693895      -0.86693895
C        2.06373767       1.42649945      -0.48711099
C        2.52096656       2.16995599      -1.60221904
C        1.58431555       2.00776462      -2.60947471
O        0.56842940       1.21122691      -2.14711612
C        1.52606343       2.54063117      -3.95896026
N        0.86657990       2.05008990      -4.96887379
N        0.13191109       0.92211240      -4.78418581
C       -0.57448875       0.38666688      -5.87297366
N       -1.69510192      -0.30528186      -5.60614106
C       -2.36266060      -0.87365321      -6.61973869
C       -3.53729900      -1.54285475      -6.30135582
C       -4.30934332      -2.18890323      -7.26757808
C       -3.87817282      -2.19062802      -8.58310405
C       -2.69772150      -1.53633871      -8.93316062
C       -1.93184184      -0.82802526      -7.96881371
C       -0.75271969      -0.08166317      -8.25119178
C       -0.09860114       0.52773311      -7.16844894
C       -0.16657865       0.10019183      -9.60505498
C       -0.93618168       0.51423128     -10.70528217
C       -0.36177084       0.69700400     -11.96845887
C        1.00503424       0.51061166     -12.14836324
C        1.79656767       0.13172612     -11.07042101
C        1.21452577      -0.08127825      -9.81696674
C        2.32811413       3.79468540      -4.23048393
H        2.54800286       1.31632247       0.47320498
H        3.43628360       2.74211505      -1.66790773
H       -0.37323339       0.77427692      -3.90901142
H       -3.86533950      -1.55807116      -5.26379720
H       -5.22823823      -2.68917132      -6.97554132
H       -2.36991863      -1.58164126      -9.96824986
H        0.80208998       1.11370851      -7.32853438
H       -2.00006369       0.70869249     -10.59092762
H       -0.98398503       0.99709814     -12.80798166
H        1.45469451       0.66798120     -13.12480151
H        2.86777005       0.00310903     -11.19790902
H        1.86032621      -0.38502289      -8.99390977
H        1.95765057       4.60765153      -3.59837055
H        2.23002912       4.09420183      -5.27865491
H        3.38625237       3.62149349      -4.01581742
C       -4.65456312      -2.86282369      -9.59254502
C       -5.30478999      -3.42578757     -10.43795184
Br      -6.35615186      -4.33605255     -11.80490315
C       -0.86693895      -0.86693895      -0.86693895
C       -1.99876507      -0.45136321      -1.52721984
C       -2.50011135      -1.59074455      -2.20228570
C       -1.63417724      -2.63690850      -1.93046913
O       -0.63744136      -2.18508635      -1.10424473
C       -1.65246217      -4.02850457      -2.34468811
N       -0.63861564      -4.84344835      -2.40347960
N        0.58841483      -4.38786407      -2.03876007
C        1.68484613      -5.26205746      -2.10794046
N        2.70034578      -5.05305809      -1.25304498
C        3.78411803      -5.83765592      -1.32988698
C        4.79014798      -5.61204106      -0.39930900
C        5.97293527      -6.35227344      -0.38999337
C        6.16653358      -7.32405298      -1.35678382
C        5.17970892      -7.56757659      -2.31123274
C        3.94822363      -6.85940487      -2.29776538
C        2.86488409      -7.08908356      -3.19260945
C        1.73244421      -6.26951207      -3.06051306
C        2.84494394      -8.13142426      -4.25218783
C        3.17950096      -9.47101283      -3.99181990
C        3.13726443     -10.44138838      -4.99956809
C        2.71747131     -10.10024884      -6.28123161
C        2.35002605      -8.78897424      -6.55976661
C        2.42395475      -7.81508274      -5.55908628
C       -2.99020364      -4.59476413      -2.76831569
H       -2.41465285       0.54657387      -1.52304138
H       -3.38061887      -1.63728112      -2.82840640
H        0.68474990      -3.73761572      -1.25718913
H        4.64578995      -4.83439508       0.34821858
H        6.72773289      -6.15052264       0.36465798
H        5.37407484      -8.31536970      -3.07539511
H        0.87513985      -6.40572620      -3.71374652
H        3.47256906      -9.78075839      -2.99136708
H        3.42189394     -11.46664952      -4.77633920
H        2.66876865     -10.85608112      -7.06016476
H        2.00240117      -8.51835148      -7.55283779
H        2.13641166      -6.79491335      -5.81071139
H       -3.68752182      -4.55014192      -1.92600891
H       -2.88439747      -5.63868694      -3.07980144
H       -3.39612058      -4.02124689      -3.60619581
C        7.38603000      -8.08969793      -1.37149028
C        8.40735825      -8.73092558      -1.38380694
Br      10.05875966      -9.76773646      -1.40372195
C       -0.86693895       0.86693895       0.86693895
C       -2.08759039       0.50467141       1.38508632
C       -2.55035752       1.62385671       2.11892736
C       -1.57574257       2.60316327       2.02264903
O       -0.54814769       2.13218469       1.24644006
C       -1.51306695       3.94939223       2.56319568
N       -0.44286561       4.65693462       2.78574335
N        0.76926900       4.12073552       2.48674279
C        1.92550268       4.87835494       2.73229953
N        2.99533299       4.64890876       1.95218152
C        4.13056941       5.31820125       2.19579303
C        5.19671683       5.07968963       1.33822928
C        6.43446351       5.70306104       1.50073400
C        6.61898120       6.56531633       2.56796808
C        5.57117235       6.81772129       3.45255147
C        4.29003857       6.23270533       3.26627986
C        3.15093681       6.48562031       4.08212542
C        1.96963178       5.79099305       3.77621965
C        3.12099077       7.43001182       5.22964711
C        3.59278346       8.74948749       5.12662774
C        3.53941386       9.62907276       6.21403314
C        2.97274486       9.21991560       7.41683840
C        2.46905878       7.93005968       7.53771390
C        2.55289104       7.04338818       6.45971713
C       -2.83102800       4.60072997       2.92152549
H       -2.58565229      -0.44548741       1.25095548
H       -3.47871399       1.69914506       2.66844735
H        0.88253426       3.53406327       1.65852595
H        5.05707378       4.38644043       0.51101989
H        7.23689490       5.49676491       0.79826175
H        5.75627196       7.47521086       4.29775107
H        1.06945634       5.95069884       4.36309037
H        4.00452894       9.11523694       4.18884842
H        3.93110338      10.63830819       6.11388996
H        2.91606705       9.90703954       8.25650473
H        2.00727074       7.60889582       8.46716303
H        2.15607130       6.03703119       6.58825319
H       -3.44700329       4.69483452       2.02183484
H       -2.66553905       5.59927805       3.33806876
H       -3.36208375       3.99802444       3.66345509
C        7.89305905       7.20835889       2.75985838
C        8.96009926       7.74690703       2.92056650
Br      10.68541302       8.61769383       3.18041793
C        0.86693895      -0.86693895       0.86693895
C        2.24054061      -0.90660451       0.83020299
C        2.63161049      -1.86473963       1.79679147
C        1.47276425      -2.34480125       2.38398937
O        0.39316629      -1.73127610       1.80233005
C        1.26494379      -3.33941176       3.42129932
N        0.22875955      -3.45554204       4.20124200
N       -0.79821782      -2.57730481       4.05912231
C       -1.91371857      -2.69543471       4.90343565
N       -3.09875968      -2.27573640       4.42878057
C       -4.17225204      -2.32619086       5.22948605
C       -5.38320797      -1.92163880       4.68277124
C       -6.56619444      -1.91283446       5.42269152
C       -6.53029307      -2.29052060       6.75407569
C       -5.32810489      -2.69215140       7.33505390
C       -4.12776503      -2.75863144       6.57808020
C       -2.87442567      -3.21710181       7.07413278
C       -1.77928624      -3.18075221       6.19611496
C       -2.64209486      -3.73149313       8.44926989
C       -3.46106911      -4.71457915       9.02982173
C       -3.21491984      -5.19890228      10.31970959
C       -2.11719341      -4.74037409      11.04082846
C       -1.27142804      -3.79110590      10.47903695
C       -1.53824944      -3.28556316       9.20290054
C        2.37616568      -4.34449400       3.63262378
H        2.88283966      -0.32124938       0.18703131
H        3.64229603      -2.15670548       2.04730488
H       -1.07196978      -2.25114653       3.13087820
H       -5.40704494      -1.60585216       3.64157933
H       -7.49346906      -1.60091550       4.95068532
H       -5.32650169      -2.95327926       8.38991240
H       -0.80130533      -3.52422017       6.52141803
H       -4.30377606      -5.12499812       8.47833436
H       -3.87685474      -5.94418124      10.75376827
H       -1.91587995      -5.12756950      12.03578767
H       -0.40100696      -3.44220785      11.02758721
H       -0.86105581      -2.53699160       8.79327730
H        2.51803494      -4.92797292       2.71766479
H        2.12492868      -5.02928716       4.44867002
H        3.30845391      -3.83122801       3.88388137
C       -7.73832973      -2.27581091       7.53767703
C       -8.75006043      -2.26349154       8.19394316
Br     -10.38594340      -2.24357217       9.25506998
