153
Properties=species:S:1:pos:R:3 pbc="F F F"
C        0.00000000       0.00000000       0.00000000
C        0.88224712       0.88224712      -0.88224712
C        1.35238343       2.09863861      -0.38909612
C        2.16649120       2.89697153      -1.19045724
C        2.49838238       2.47625484      -2.47865505
C        2.01934245       1.26202769      -2.98267850
N        2.44044532       0.85785554      -4.25439226
C        1.54740626       0.53802377      -5.13435789
C        1.89488506       0.11511013      -6.50691749
C        0.86896519       0.11518632      -7.47823593
O       -0.40769575       0.46045163      -7.10010937
C        1.13394707      -0.21408360      -8.81186590
Br      -0.25422595      -0.19463349     -10.10743620
C        2.41759770      -0.55215522      -9.22980906
C        3.40780195      -0.56334423      -8.24948920
O        4.70918521      -0.87376280      -8.50213809
C        5.35181039      -0.78994856      -7.32105722
C        6.80011467      -1.08557774      -7.25033866
C        7.34306001      -0.60193966      -5.89371953
C        6.39767266      -0.96754689      -4.73422106
C        4.99474130      -0.34034856      -4.89288842
C        4.49496538      -0.45433187      -6.29509840
C        3.20761128      -0.26041563      -6.89647300
C        1.21763609       0.45694297      -2.16770398
H        1.09952020       2.42691839       0.61555563
H        2.55066126       3.84062520      -0.81260753
H        3.14659552       3.08887116      -3.10006306
H        0.47128501       0.60002453      -4.88850305
H       -0.97592704       0.42642552      -7.89287531
H        2.65498149      -0.80112006     -10.25723255
H        7.34204477      -0.59745393      -8.06672333
H        6.95192259      -2.16686761      -7.34387720
H        7.46835789       0.48857116      -5.91686166
H        8.33491040      -1.03414254      -5.72038775
H        6.83229374      -0.64437320      -3.78142246
H        6.30282507      -2.06019238      -4.68660987
H        5.05253673       0.71953805      -4.61973048
H        4.31622823      -0.84611031      -4.19866213
H        0.87128334      -0.50393125      -2.53579228
C       -0.88224712      -0.88224712      -0.88224712
C       -1.21778313      -0.45580079      -2.16653425
C       -2.01285919      -1.26659356      -2.97446722
C       -2.47046570      -2.49248988      -2.49033668
C       -2.14653686      -2.91964401      -1.19786776
N       -2.57464439      -4.18788644      -0.79016229
C       -3.23862865      -4.29622885       0.31506958
C       -3.74530437      -5.58989429       0.81828599
C       -4.72909245      -5.56524992       1.83195493
O       -5.13696180      -4.35231076       2.33640731
C       -5.30052141      -6.74701211       2.31580414
Br      -6.63232744      -6.69462636       3.66837705
C       -4.92146936      -7.98895063       1.81516845
C       -3.93616364      -7.98764589       0.82986260
O       -3.46058104      -9.12091621       0.24393676
C       -2.52236419      -8.72326254      -0.63729231
C       -1.79409437      -9.73120164      -1.43957958
C       -1.04201435      -9.01636586      -2.57645968
C       -0.34508286      -7.73373865      -2.08552532
C       -1.33933833      -6.70441801      -1.50352483
C       -2.35576477      -7.35523465      -0.62473249
C       -3.31261461      -6.84443588       0.31338185
C       -1.33379145      -2.11014019      -0.39835141
H       -0.85902170       0.49637037      -2.54823163
H       -2.26980376      -0.95179373      -3.98229649
H       -3.07702677      -3.13453965      -3.12396332
H       -3.47654803      -3.39916715       0.91590259
H       -5.82728884      -4.52136553       3.00528059
H       -5.35377960      -8.91977327       2.16245889
H       -2.48118319     -10.47564915      -1.85448184
H       -1.07808340     -10.25481029      -0.79603848
H       -1.74896472      -8.75125504      -3.37357096
H       -0.30622583      -9.69921026      -3.01571951
H        0.21198818      -7.27239875      -2.90893242
H        0.38962015      -8.00322438      -1.31563833
H       -1.85241045      -6.20563591      -2.33375889
H       -0.76662628      -5.95775928      -0.94439449
H       -1.04621092      -2.44910239       0.59216894
C       -0.88224712       0.88224712       0.88224712
C       -1.99315723       1.51775005       0.32921089
C       -2.80366523       2.31277055       1.13748419
C       -2.49388788       2.47073848       2.48866591
C       -1.37334589       1.84482525       3.04587749
N       -1.15030904       1.98195638       4.42042770
C        0.00537227       2.39930603       4.82585416
C        0.32859534       2.59049665       6.25501137
C        1.47128783       3.35613268       6.57754259
O        2.25406147       3.84793534       5.55899137
C        1.80714737       3.63144533       7.90743142
Br       3.33859121       4.67465954       8.32250842
C        1.02714851       3.16226024       8.96013981
C       -0.08338980       2.39389583       8.61666130
O       -0.94077044       1.86448201       9.53230804
C       -1.86804695       1.18478376       8.83008833
C       -2.95139083       0.47122682       9.54225795
C       -4.03699726       0.07044666       8.52739597
C       -3.42895124      -0.49486146       7.23025705
C       -2.51296529       0.52150772       6.51280815
C       -1.62354758       1.23740571       7.47477863
C       -0.46641007       2.06814281       7.30911576
C       -0.57403410       1.03406850       2.23418045
H       -2.23978426       1.39289650      -0.72179780
H       -3.68019908       2.80216654       0.72152836
H       -3.13338968       3.07680239       3.12533767
H        0.79493030       2.65820138       4.09654150
H        2.97954318       4.36372164       5.95919532
H        1.25610480       3.36827597       9.99892281
H       -3.38554232       1.09777109      10.32800076
H       -2.54001819      -0.42721645      10.01613044
H       -4.64751326       0.94824815       8.27802931
H       -4.70823703      -0.66760615       8.98052472
H       -4.22784221      -0.80603795       6.54753873
H       -2.85003744      -1.39510305       7.47430817
H       -3.14207138       1.25465187       5.99508200
H       -1.92052323      -0.02111378       5.76937061
H        0.27630890       0.51443234       2.66502094
C        0.88224712      -0.88224712       0.88224712
C        0.40869793      -1.30934553       2.12207470
C        1.20966562      -2.12352040       2.92073395
C        2.47810435      -2.49842948       2.47675844
C        2.96279518      -2.06265607       1.23859738
N        4.21296722      -2.52589031       0.81383559
C        5.10640090      -1.66374961       0.44963741
C        6.45870531      -2.05643808       0.00176929
C        7.45487399      -1.05588581      -0.04837237
O        7.11745917       0.23816102       0.27356710
C        8.77270420      -1.36281457      -0.40378939
Br      10.10240362      -0.00800980      -0.45183668
C        9.14992008      -2.66468150      -0.71935003
C        8.14535925      -3.62958744      -0.68099977
O        8.35764902      -4.94428257      -0.96437109
C        7.16349855      -5.55436168      -0.83494119
C        7.04935525      -7.00728789      -1.09176754
C        5.69242734      -7.50335934      -0.56094679
C        4.54782019      -6.53813311      -0.92160647
C        4.75716937      -5.12456034      -0.33444854
C        6.16799598      -4.66361692      -0.49588099
C        6.80587661      -3.38756930      -0.34977726
C        2.14774306      -1.26069588       0.43384410
H       -0.58068796      -1.02292516       2.46864576
H        0.84653698      -2.47441049       3.88294652
H        3.09862333      -3.14684388       3.09006254
H        4.88898762      -0.58051250       0.49031247
H        7.92296092       0.78501197       0.20542482
H       10.16446614      -2.93424326      -0.98761542
H        7.86419702      -7.55753855      -0.61042139
H        7.11154703      -7.18821698      -2.17083183
H        5.74019968      -7.60210169       0.53148935
H        5.48358843      -8.50089816      -0.96333098
H        3.59306208      -6.94020896      -0.56392805
H        4.47478418      -6.46925202      -2.01479364
H        4.50972484      -5.14906182       0.73301858
H        4.06734970      -4.44135985      -0.83992950
H        2.49973960      -0.94777815      -0.54437337
