174
Properties=species:S:1:pos:R:3 pbc="F F F"
C        1.79125466       1.79125466      -1.79125466
C        2.32157676       1.27733946      -2.97214209
C        3.13311707       2.08583774      -3.77230771
C        3.41359034       3.40564902      -3.40610140
C        2.88697987       3.90135139      -2.20811936
C        2.06938369       3.10067237      -1.40359735
N        4.27594415       4.15979145      -4.21598357
C        3.86420016       5.31245010      -4.63549791
C        4.69659049       6.20212796      -5.46622165
C        4.48168124       7.59382765      -5.36497014
O        3.51119485       8.05579247      -4.50681522
C        5.25375567       8.49852969      -6.10198909
Br       4.96736756      10.36852275      -5.94032490
C        6.25491993       8.05896545      -6.96454033
C        6.43610809       6.67999641      -7.05466765
O        7.36835832       6.09258237      -7.85450437
C        7.23223061       4.76370620      -7.67596047
C        8.10245926       3.82593651      -8.42044957
C        7.99674516       2.43253409      -7.77524254
C        6.53797620       2.06214629      -7.44189140
C        5.88224148       3.05520453      -6.45609615
C        6.21882001       4.46786541      -6.79099174
C        5.69669711       5.72349502      -6.34800173
H        2.12023899       0.25363866      -3.27525658
H        3.55945923       1.68217394      -4.68594417
H        3.12340695       4.91285867      -1.88937246
H        1.66832396       3.50383200      -0.47860047
H        2.86358999       5.69535834      -4.35929009
H        3.53017748       9.03169299      -4.53206618
H        6.87015573       8.73590356      -7.54484874
H        9.14334193       4.16500382      -8.41577593
H        7.76872729       3.77575703      -9.46299930
H        8.58657122       2.41192023      -6.84944507
H        8.43000208       1.68311589      -8.44736057
H        6.49694440       1.05188461      -7.01872349
H        5.95808779       2.04065677      -8.37378347
H        6.24199992       2.83270195      -5.44476045
H        4.79892434       2.90251925      -6.48265749
C       -1.79125466      -1.79125466      -1.79125466
C       -3.15183264      -1.51552231      -1.90370336
C       -3.95577216      -2.32902294      -2.70646743
C       -3.41051420      -3.41149825      -3.40332831
C       -2.04505651      -3.68520884      -3.26618528
C       -1.23183932      -2.87300422      -2.46880987
N       -4.26838341      -4.22924832      -4.15408745
C       -3.97635039      -4.43873899      -5.39705878
C       -4.78888215      -5.30430306      -6.27175488
C       -4.13815396      -5.96766219      -7.33466287
O       -2.78739307      -5.77666951      -7.50973996
C       -4.84069791      -6.82666702      -8.18690953
Br      -3.94834543      -7.72812048      -9.59974930
C       -6.20498020      -7.05215572      -8.02128978
C       -6.82396711      -6.37419897      -6.97260607
O       -8.14964533      -6.48379668      -6.68200305
C       -8.36875476      -5.68201667      -5.62112584
C       -9.73106739      -5.56318246      -5.05459548
C       -9.63609651      -4.89912730      -3.66929799
C       -8.67369992      -3.69492918      -3.67338478
C       -7.23341919      -4.08555928      -4.07456369
C       -7.21934276      -5.03565189      -5.22268251
C       -6.17976566      -5.50049529      -6.08793291
H       -3.59838916      -0.68195633      -1.36878874
H       -5.01953496      -2.12435414      -2.78368824
H       -1.61064359      -4.54339887      -3.77159562
H       -0.17406410      -3.10016392      -2.37652841
H       -3.07349911      -3.99102077      -5.85371854
H       -2.50041489      -6.33870506      -8.25481669
H       -6.77381037      -7.71387923      -8.66321843
H      -10.21036650      -6.54376379      -4.96999140
H      -10.34443639      -4.94411672      -5.71893050
H       -9.27974552      -5.63332433      -2.93486667
H      -10.63369912      -4.58114440      -3.34563502
H       -8.65882640      -3.22586858      -2.68285751
H       -9.05398361      -2.94227350      -4.37627092
H       -6.74697872      -4.55881416      -3.21366943
H       -6.68595971      -3.17199976      -4.32614161
C       -1.79125466       1.79125466       1.79125466
C       -1.62604614       3.17405602       1.77095615
C       -2.43070837       3.97621837       2.58433579
C       -3.40375375       3.40895698       3.41263003
C       -3.54546915       2.01695861       3.43402287
C       -2.74777481       1.20665905       2.61921955
N       -4.15019682       4.25248827       4.24903408
C       -5.44073862       4.17782564       4.19358392
C       -6.32372640       4.99386083       5.04735285
C       -7.58645160       4.46364908       5.39037834
O       -7.93744273       3.22186659       4.91449321
C       -8.46425865       5.16997365       6.22004215
Br     -10.15096850       4.43551517       6.68973154
C       -8.12693730       6.42108994       6.73039847
C       -6.88027435       6.92572529       6.36477251
O       -6.40574848       8.13395193       6.77574465
C       -5.18796632       8.26941449       6.21451647
C       -4.39612984       9.49640442       6.45631107
C       -2.94215156       9.24260119       6.01976905
C       -2.86772769       8.50737189       4.66691430
C       -3.56509628       7.12876804       4.69967784
C       -4.86292248       7.18461151       5.43014318
C       -5.95878838       6.27191611       5.53748937
H       -0.87407787       3.63701965       1.13803671
H       -2.29331484       5.05350842       2.58075408
H       -4.27171720       1.55601569       4.09790519
H       -2.87400345       0.12858930       2.64816368
H       -5.94165976       3.46572028       3.51085839
H       -8.81406435       2.99814324       5.28172905
H       -8.78455553       6.98909465       7.37725785
H       -4.42740162       9.78482284       7.51189722
H       -4.81906565      10.31929198       5.86912599
H       -2.43217163       8.63607960       6.77968530
H       -2.40560213      10.19625594       5.95862048
H       -1.82062248       8.37626911       4.37066091
H       -3.33972293       9.13390003       3.89890507
H       -2.90308118       6.41405524       5.20232589
H       -3.71943735       6.79603472       3.66862900
C        1.79125466      -1.79125466       1.79125466
C        1.82662699      -3.16706248       1.57736885
C        2.62986072      -3.97049938       2.39090242
C        3.40339276      -3.41011740       3.41183061
C        3.34351085      -2.02832901       3.62461076
C        2.54614879      -1.21583842       2.81166619
N        4.15243653      -4.26462316       4.23465949
C        5.41640455      -4.02421108       4.37153254
C        6.29354917      -4.83730975       5.23408117
C        7.41673428      -4.20909191       5.81465284
O        7.64497923      -2.87885439       5.54996891
C        8.27628163      -4.91166241       6.66633042
Br       9.77148073      -4.04837619       7.45635829
C        8.05852774      -6.25424619       6.96565179
C        6.95029947      -6.85216956       6.36830312
O        6.60398431      -8.15552901       6.55593174
C        5.49616203      -8.35965642       5.81607883
C        4.86168551      -9.69672628       5.79043356
C        3.45153377      -9.56523094       5.18775708
C        3.44160733      -8.66129879       3.93910777
C        3.92801492      -7.22570675       4.23982049
C        5.12057696      -7.22350019       5.13360002
C        6.05496501      -6.20690920       5.50631966
H        1.23142524      -3.62528789       0.79242109
H        2.64737698      -5.04513904       2.23506131
H        3.90991282      -1.57963188       4.43609337
H        2.51442592      -0.14538986       2.99094066
H        5.89219519      -3.16656929       3.85947394
H        8.42917137      -2.60275168       6.06201360
H        8.70482690      -6.82232127       7.62375986
H        4.80285066     -10.12514175       6.79612927
H        5.46570921     -10.36997046       5.17180395
H        2.77122931      -9.13963439       5.93707283
H        3.06662612     -10.55955732       4.93429510
H        2.43112040      -8.61992026       3.51651184
H        4.08842257      -9.11009225       3.17401321
H        3.11484808      -6.67629074       4.72832349
H        4.15989024      -6.73432095       3.28988989
C       -0.00445707       0.01189536      -1.78238275
H       -0.66409135       0.67374010      -2.43557963
H        0.65740317      -0.63156657      -2.45157240
C       -0.90989263      -0.90692880      -0.91072765
C        0.90977584       0.90977584      -0.90977584
C       -0.00465871       1.77757030       0.00794375
H       -0.66225468       2.44313916      -0.64384735
H        0.64322798       2.43503045       0.67728295
C       -1.78241447       0.00034974      -0.00472694
H       -2.45427497      -0.65498947       0.64260836
H       -2.43311707       0.67328779      -0.65473579
C       -0.91132561       0.90220522       0.91563759
C       -0.01476271      -0.02253852       1.78660255
H       -0.67934791      -0.69751639       2.42135241
H        0.63392994       0.61504881       2.47327442
C        0.01484550      -1.77751727      -0.01636693
H        0.67870853      -2.42144646      -0.68295456
H       -0.62264859      -2.45592969       0.64226336
C        1.78714474       0.01002794       0.00389507
H        2.44202412       0.67113390       0.66197326
H        2.45385902      -0.65136977      -0.64189061
C        0.91606151      -0.90478549       0.90901405
