182
Properties=species:S:1:pos:R:3 pbc="F F F"
C        1.79125466       1.79125466      -1.79125466
C        2.32157676       1.27733946      -2.97214209
C        3.13311707       2.08583774      -3.77230771
C        3.41359034       3.40564902      -3.40610140
C        2.88697987       3.90135139      -2.20811936
C        2.06938369       3.10067237      -1.40359735
N        4.27594415       4.15979145      -4.21598357
C        3.86420016       5.31245010      -4.63549791
C        4.69659049       6.20212796      -5.46622165
C        4.48168124       7.59382765      -5.36497014
O        3.51119485       8.05579247      -4.50681522
C        5.25375567       8.49852969      -6.10198909
C        6.25491993       8.05896545      -6.96454033
C        6.43610809       6.67999641      -7.05466765
O        7.36835832       6.09258237      -7.85450437
C        7.23223061       4.76370620      -7.67596047
C        8.10245926       3.82593651      -8.42044957
C        7.99674516       2.43253409      -7.77524254
C        6.53797620       2.06214629      -7.44189140
C        5.88224148       3.05520453      -6.45609615
C        6.21882001       4.46786541      -6.79099174
C        5.69669711       5.72349502      -6.34800173
H        2.12023899       0.25363866      -3.27525658
H        3.55945923       1.68217394      -4.68594417
H        3.12340695       4.91285867      -1.88937246
H        1.66832396       3.50383200      -0.47860047
H        2.86358999       5.69535834      -4.35929009
H        3.53017748       9.03169299      -4.53206618
H        6.87015573       8.73590356      -7.54484874
H        9.14334193       4.16500382      -8.41577593
H        7.76872729       3.77575703      -9.46299930
H        8.58657122       2.41192023      -6.84944507
H        8.43000208       1.68311589      -8.44736057
H        6.49694440       1.05188461      -7.01872349
H        5.95808779       2.04065677      -8.37378347
H        6.24199992       2.83270195      -5.44476045
H        4.79892434       2.90251925      -6.48265749
C        5.03655399       9.91676468      -5.97938018
C        4.85464758      11.10453648      -5.87669521
Br       4.56052030      13.02506303      -5.71066231
C       -1.79125466      -1.79125466      -1.79125466
C       -1.73822007      -3.17647557      -1.65636267
C       -2.54204341      -3.97934423      -2.46987488
C       -3.40351438      -3.40963073      -3.41219566
C       -3.43238350      -2.01707978      -3.54698735
C       -2.63494617      -1.20549668      -2.73321055
N       -4.15105048      -4.25973032      -4.24093837
C       -5.43217477      -4.08628040      -4.29369300
C       -6.31199736      -4.90038995      -5.15255278
C       -7.50004523      -4.30772192      -5.63271186
O       -7.78541990      -3.00967412      -5.27870852
C       -8.36778404      -5.01123234      -6.47525808
C       -8.09420670      -6.32028979      -6.86392922
C       -6.92175822      -6.88455803      -6.36445590
O       -6.51568050      -8.15317348      -6.64659108
C       -5.35702504      -8.33279236      -5.98207987
C       -4.64941693      -9.62995341      -6.06947500
C       -3.21590387      -9.44983710      -5.53878083
C       -3.18298640      -8.61705018      -4.24197730
C       -3.76447752      -7.19788944      -4.43117520
C       -5.00545104      -7.21600084      -5.25622528
C       -6.01458837      -6.23665334      -5.51695215
H       -1.07389900      -3.64176012      -0.93347511
H       -2.49119264      -5.06012798      -2.37625672
H       -4.06902043      -1.55815059      -4.29846706
H       -2.67277210      -0.12677047      -2.85121386
H       -5.92382373      -3.28737608      -3.70703861
H       -8.61216676      -2.75198794      -5.72978195
H       -8.74550538      -6.88796638      -7.51743627
H       -4.62582720      -9.99813458      -7.10015991
H       -5.17830656     -10.37035099      -5.45882607
H       -2.60495555      -8.94463720      -6.29834378
H       -2.76265837     -10.43247204      -5.36534813
H       -2.15338764      -8.54014954      -3.87401531
H       -3.75835479      -9.14428822      -3.46988503
H       -3.01270492      -6.57589187      -4.93086552
H       -3.96727267      -6.77396173      -3.44286667
C       -9.56914276      -4.39174152      -6.97181457
C      -10.57528069      -3.87291796      -7.38768063
Br     -12.20212063      -3.03402414      -8.06010087
C       -1.79125466       1.79125466       1.79125466
C       -2.85982674       2.48399246       1.22723911
C       -3.65979074       3.29465687       2.03681492
C       -3.40536494       3.41356118       3.40641464
C       -2.31766624       2.72444124       3.95434314
C       -1.51474034       1.90661445       3.15229861
N       -4.20474264       4.28055764       4.16641889
C       -4.77543131       3.80908422       5.22763264
C       -5.61199478       4.63602325       6.11692206
C       -5.67299882       4.28454048       7.48293972
O       -4.95940678       3.19340296       7.92099280
C       -6.42383269       5.04082293       8.38961884
C       -7.14122826       6.16072965       7.97646780
C       -7.07360857       6.47650576       6.62065782
O       -7.72020619       7.53540652       6.05983235
C       -7.42080649       7.50493724       4.74615354
C       -7.98268072       8.52907912       3.83708550
C       -7.21166980       8.48724303       2.50560896
C       -6.97831615       7.04253832       2.02115941
C       -6.16326374       6.20123146       3.02904696
C       -6.60757192       6.43842488       4.43168036
C       -6.34456295       5.76043928       5.66319162
H       -3.07456469       2.40975958       0.16480995
H       -4.48443602       3.84706429       1.59607703
H       -2.08296898       2.83296639       5.00970271
H       -0.67645987       1.37814179       3.59615478
H       -4.63301992       2.75455883       5.53065967
H       -5.08188060       3.12479570       8.88726035
H       -7.72813996       6.76672575       8.65604233
H       -7.91655293       9.52837533       4.27919343
H       -9.04103361       8.30911934       3.65733067
H       -6.23815569       8.97926992       2.63051092
H       -7.76129445       9.05382484       1.74535925
H       -6.46023045       7.05202010       1.05530194
H       -7.95267063       6.56485655       1.85500086
H       -5.10570848       6.47528580       2.93846803
H       -6.27393251       5.14494319       2.76522538
C       -6.46659041       4.68245165       9.78365679
C       -6.50240001       4.38231570      10.95116357
Br      -6.56030109       3.89702126      12.83892329
C        1.79125466      -1.79125466       1.79125466
C        1.50438975      -1.91844011       3.14822845
C        2.31787900      -2.72111875       3.95226477
C        3.41143332      -3.40332009       3.41058735
C        3.69609740      -3.25141634       2.04893688
C        2.88403567      -2.45403060       1.23558713
N        4.22821993      -4.15444672       4.26905252
C        4.45152389      -5.39280825       3.96781603
C        5.31764473      -6.26702498       4.78027038
C        5.99636374      -7.31804076       4.12607452
O        5.81904847      -7.48262112       2.77213295
C        6.85670704      -8.16887587       4.82869155
C        7.06847995      -8.01356558       6.19638018
C        6.37557679      -6.97661702       6.81857834
O        6.47068535      -6.69702172       8.14773799
C        5.65743558      -5.64537921       8.36908249
C        5.52131268      -5.09225269       9.73527997
C        4.84565796      -3.71214954       9.64671429
C        3.65020211      -3.71832110       8.67349067
C        4.05730400      -4.10297476       7.23326340
C        5.01780786      -5.24237574       7.21749357
C        5.49972132      -6.09401606       6.17445648
H        0.66206911      -1.39505478       3.59201034
H        2.10440883      -2.80976470       5.01340381
H        4.56266520      -3.74518912       1.61778376
H        3.11980545      -2.35017808       0.18077289
H        4.01603883      -5.84528731       3.05691227
H        6.39033002      -8.22002053       2.48358610
H        7.73085569      -8.65465745       6.76539490
H        6.49676418      -5.00321041      10.22414709
H        4.90280642      -5.76760711      10.33707009
H        5.57635469      -2.96799434       9.30358750
H        4.51585654      -3.40036050      10.64426150
H        3.17237267      -2.73193508       8.66324475
H        2.90054945      -4.43131478       9.04066380
H        4.52710187      -3.23352673       6.75883372
H        3.15098554      -4.35776275       6.67535279
C        7.55605385      -9.22808820       4.14855680
C        8.14175681     -10.11517852       3.57894394
Br       9.08878896     -11.54952855       2.65792814
C       -0.00445707       0.01189536      -1.78238275
H       -0.66409135       0.67374010      -2.43557963
H        0.65740317      -0.63156657      -2.45157240
C       -0.90989263      -0.90692880      -0.91072765
C        0.90977584       0.90977584      -0.90977584
C       -0.00465871       1.77757030       0.00794375
H       -0.66225468       2.44313916      -0.64384735
H        0.64322798       2.43503045       0.67728295
C       -1.78241447       0.00034974      -0.00472694
H       -2.45427497      -0.65498947       0.64260836
H       -2.43311707       0.67328779      -0.65473579
C       -0.91132561       0.90220522       0.91563759
C       -0.01476271      -0.02253852       1.78660255
H       -0.67934791      -0.69751639       2.42135241
H        0.63392994       0.61504881       2.47327442
C        0.01484550      -1.77751727      -0.01636693
H        0.67870853      -2.42144646      -0.68295456
H       -0.62264859      -2.45592969       0.64226336
C        1.78714474       0.01002794       0.00389507
H        2.44202412       0.67113390       0.66197326
H        2.45385902      -0.65136977      -0.64189061
C        0.91606151      -0.90478549       0.90901405
