198
Properties=species:S:1:pos:R:3 pbc="F F F"
C        1.79137411       1.79137411      -1.79137411
C        3.17576058       1.65414889      -1.73980924
C        3.98089900       2.46043688      -2.54845646
C        3.41001354       3.42247069      -3.39575301
C        2.01285736       3.54058801      -3.44385520
C        1.20521457       2.72502431      -2.64477871
N        4.24697744       4.26907001      -4.19364210
C        4.16459264       5.66362216      -4.14126758
C        3.27751569       6.26770672      -3.10425691
C        2.54849576       7.37955777      -3.26315430
C        2.38877994       8.24035379      -4.49151792
O        2.68882227       8.00017901      -5.64139180
N        1.71587075       9.37141597      -4.04145380
C        1.33765457       9.24474854      -2.70929542
C        0.58576457      10.13742218      -1.97250022
C        0.25776141       9.77158281      -0.66445543
C        0.68413293       8.53707902      -0.14042851
C        1.45922143       7.65232196      -0.89626865
C        1.78778965       8.02831057      -2.18694163
N        4.92139907       6.44923586      -4.84158037
C        5.80009903       5.89434702      -5.77235903
C        6.50976814       6.74676701      -6.62108063
C        7.41034309       6.23265392      -7.55792543
C        7.61090391       4.85631623      -7.65051699
C        6.90459553       3.99669936      -6.81078058
C        5.99958309       4.52420029      -5.87843115
C        5.20943239       3.64438370      -5.00131024
O        5.42387437       2.43311436      -5.05367028
H        3.64023231       0.92383083      -1.08190895
H        5.06166627       2.34100634      -2.49538568
H        1.53851107       4.23959135      -4.12941837
H        0.12393647       2.81710288      -2.70413798
H        3.32537332       5.78447819      -2.13421115
H        1.46135799      10.12546018      -4.66074081
H        0.24879289      11.08029749      -2.38792252
H       -0.34205778      10.44597207      -0.05686342
H        1.77608193       6.69958486      -0.48622861
H        6.34775293       7.81977877      -6.55299462
H        7.95084377       6.90881795      -8.21560342
H        8.30942537       4.45370315      -8.37982401
H        7.05040926       2.92132660      -6.88810300
C        0.30375415       8.17120748       1.19936625
C       -0.01481308       7.86479008       2.32144436
Br      -0.52990934       7.36933904       4.13574977
C       -1.79137411      -1.79137411      -1.79137411
C       -3.15904561      -1.86764079      -1.54303230
C       -3.96455426      -2.67345666      -2.35178143
C       -3.40631230      -3.42405910      -3.39786585
C       -2.02805689      -3.32761328      -3.64163039
C       -1.22269359      -2.51110388      -2.84122012
N       -4.23627606      -4.27548332      -4.19793017
C       -3.96892290      -5.63769682      -4.36286267
C       -2.86850714      -6.23224352      -3.54872866
C       -2.03441280      -7.19472150      -3.96207353
C       -1.94860839      -7.85783076      -5.31421251
O       -2.44329755      -7.51909830      -6.36799722
N       -1.07724148      -8.92551749      -5.12598155
C       -0.52603699      -8.91632685      -3.84933469
C        0.43451748      -9.77534098      -3.35486346
C        0.90224987      -9.53590755      -2.06014197
C        0.40310333      -8.45531699      -1.30942681
C       -0.58199656      -7.60504685      -1.82076863
C       -1.04641884      -7.85674480      -3.09987821
N       -4.71370095      -6.42999931      -5.06851504
C       -5.78392074      -5.89608621      -5.78679812
C       -6.49579792      -6.72792106      -6.65389679
C       -7.58313674      -6.23644639      -7.38133931
C       -7.96998361      -4.90437273      -7.24338079
C       -7.26365076      -4.06482340      -6.38360131
C       -6.17090644      -4.56819656      -5.66311153
C       -5.37942376      -3.70126230      -4.77444028
O       -5.75278122      -2.53827973      -4.61959805
H       -3.61115319      -1.30429823      -0.73052067
H       -5.03195934      -2.72257629      -2.14352267
H       -1.57436188      -3.85524108      -4.47791783
H       -0.15922274      -2.43427813      -3.05167645
H       -2.83430208      -5.88979098      -2.51996959
H       -0.82230377      -9.54805443      -5.87720078
H        0.82461356     -10.59704434      -3.94458212
H        1.66661443     -10.18671394      -1.64067820
H       -0.95442806      -6.77001484      -1.23745249
H       -6.18926544      -7.76506397      -6.76619691
H       -8.12352722      -6.89496717      -8.05677075
H       -8.81425119      -4.51905286      -7.80964848
H       -7.55595966      -3.02179047      -6.28208873
C        0.92688082      -8.21219673       0.00972052
C        1.36554447      -8.00858352       1.11450641
Br       2.07482649      -7.67935818       2.90085176
C       -1.79137411       1.79137411       1.79137411
C       -2.13427733       1.36423075       3.07121063
C       -2.93961619       2.17295025       3.87722591
C       -3.42483381       3.40109748       3.40230596
C       -3.06112409       3.82187995       2.11429653
C       -2.24417907       3.01944889       1.31138962
N       -4.28004543       4.20556704       4.22407707
C       -5.53848922       4.63672059       3.79427258
C       -6.04875618       4.10361847       2.49710467
C       -6.78520590       4.79099185       1.61501008
C       -7.22117063       6.23416911       1.66531192
O       -6.82253485       7.13208649       2.37577174
N       -8.14094365       6.35845622       0.62934066
C       -8.22310696       5.19231936      -0.12372779
C       -8.96865676       4.99552919      -1.26849898
C       -8.84320808       3.76052936      -1.90993779
C       -7.98351807       2.77272441      -1.39460202
C       -7.24822286       2.98389171      -0.22430253
C       -7.38732392       4.20623926       0.40947868
N       -6.33525661       5.35144405       4.52551465
C       -5.89283561       5.80580159       5.76816788
C       -6.69916266       6.68937986       6.48907325
C       -6.29969296       7.15740406       7.74382542
C       -5.08704400       6.74036552       8.29032761
C       -4.27308046       5.86180664       7.57718838
C       -4.68222189       5.40336587       6.31662677
C       -3.83126745       4.50431798       5.51954091
O       -2.78358806       4.10153326       6.02553768
H       -1.77971517       0.41097139       3.45528553
H       -3.19918719       1.82374061       4.87513050
H       -3.37716099       4.79247020       1.73788960
H       -1.95795285       3.36551886       0.32170561
H       -5.85810902       3.04756339       2.33839025
H       -8.59561309       7.23348769       0.41845819
H       -9.61786017       5.76658481      -1.66743208
H       -9.40831547       3.57303184      -2.82056960
H       -6.58209619       2.21936796       0.16043125
H       -7.64170719       7.01961892       6.05920020
H       -6.93567437       7.84951420       8.29007657
H       -4.77304657       7.10453915       9.26536681
H       -3.32081359       5.54314049       7.99588478
C       -7.84848105       1.52140451      -2.09429017
C       -7.73538754       0.47342409      -2.68027900
Br      -7.55252491      -1.22107160      -3.62777337
C        1.79137411      -1.79137411       1.79137411
C        2.21049113      -1.32495116       3.03427641
C        3.01571355      -2.13363448       3.84044432
C        3.42484166      -3.40212591       3.40126967
C        2.98486433      -3.86160897       2.15082727
C        2.16792649      -3.05853761       1.34855350
N        4.28074042      -4.20815292       4.22079620
C        5.49832738      -4.71448642       3.75666858
C        5.97172094      -4.26218523       2.41557314
C        6.63659162      -5.02015555       1.53446067
C        7.01111988      -6.47812912       1.63140266
O        6.60652358      -7.32516007       2.39870942
N        7.87646763      -6.68918437       0.56308852
C        7.97496283      -5.56190927      -0.24517357
C        8.67546364      -5.44932949      -1.42910616
C        8.57484319      -4.23901032      -2.12005386
C        7.78335913      -3.19156765      -1.61328632
C        7.09362899      -3.31785108      -0.40366804
C        7.20807702      -4.51649847       0.27846637
N        6.29568402      -5.43222708       4.48430421
C        5.89094857      -5.81140478       5.76445172
C        6.69002024      -6.69855023       6.48904530
C        6.32810648      -7.09279665       7.78001931
C        5.16092352      -6.59755278       8.35926083
C        4.35436563      -5.71473067       7.64297918
C        4.72524987      -5.33074217       6.34622249
C        3.87884369      -4.42944351       5.54683913
O        2.87383671      -3.95770299       6.07911931
H        1.91564786      -0.34070885       3.38961538
H        3.33542881      -1.75347515       4.80915433
H        3.24085328      -4.86105909       1.80560842
H        1.82212015      -3.43399142       0.38906576
H        5.82022298      -3.20645948       2.21738020
H        8.28251465      -7.59236990       0.37267443
H        9.27162206      -6.26579688      -1.82040604
H        9.10551939      -4.11728799      -3.06202967
H        6.47964972      -2.50775030      -0.02550463
H        7.59672831      -7.08978519       6.03401282
H        6.95755631      -7.78870362       8.32900521
H        4.87609604      -6.90423144       9.36262505
H        3.43694142      -5.33508964       8.08780780
C        7.67122729      -1.96706133      -2.36269324
C        7.57731687      -0.94153729      -2.99032153
Br       7.42547167       0.71664835      -4.00514339
C       -0.00445707       0.01189536      -1.78238275
H       -0.66409135       0.67374010      -2.43557963
H        0.65740317      -0.63156657      -2.45157240
C       -0.90989263      -0.90692880      -0.91072765
C        0.90977584       0.90977584      -0.90977584
C       -0.00465871       1.77757030       0.00794375
H       -0.66225468       2.44313916      -0.64384735
H        0.64322798       2.43503045       0.67728295
C       -1.78241447       0.00034974      -0.00472694
H       -2.45427497      -0.65498947       0.64260836
H       -2.43311707       0.67328779      -0.65473579
C       -0.91132561       0.90220522       0.91563759
C       -0.01476271      -0.02253852       1.78660255
H       -0.67934791      -0.69751639       2.42135241
H        0.63392994       0.61504881       2.47327442
C        0.01484550      -1.77751727      -0.01636693
H        0.67870853      -2.42144646      -0.68295456
H       -0.62264859      -2.45592969       0.64226336
C        1.78714474       0.01002794       0.00389507
H        2.44202412       0.67113390       0.66197326
H        2.45385902      -0.65136977      -0.64189061
C        0.91606151      -0.90478549       0.90901405
