165
Properties=species:S:1:pos:R:3 pbc="F F F"
C        0.00000000       0.00000000       0.00000000
C        0.88138146       0.88138146      -0.88138146
C        2.16485569       1.21968391      -0.46056276
C        2.97305289       2.02862910      -1.26704985
C        2.50314599       2.49233726      -2.50639366
C        1.20193809       2.15598254      -2.90734128
C        0.39513012       1.34950527      -2.09816081
N        3.34480641       3.31892523      -3.32133779
C        4.31580819       4.17268050      -2.81807270
C        4.87616206       4.89192101      -3.84786257
C        4.27283882       4.44755516      -5.03979787
C        3.37241055       3.44902545      -4.71567272
C        2.61025650       2.60935862      -5.56914558
C        2.94180218       1.33909604      -5.88012877
C        4.19338366       0.67505667      -5.46977127
O        5.19333022       1.23610534      -5.04486034
N        4.19040039      -0.66958365      -5.66884555
C        3.56241589      -1.24981612      -6.73225347
O        4.15351666      -2.17481166      -7.28844442
N        2.35371647      -0.68433190      -7.13710768
C        1.50115978      -1.41880547      -8.05819048
C        1.55191854      -2.82357510      -8.14394706
C        0.72329684      -3.54001323      -9.01526030
C       -0.18529426      -2.86845154      -9.82372376
C       -0.25383229      -1.48195897      -9.75841452
Br      -1.48624316      -0.55767158     -10.85611823
C        0.57902248      -0.76261839      -8.89387908
C        1.92616786       0.55256604      -6.64151098
O        0.77839931       0.99274365      -6.73082731
H        2.54934220       0.85742799       0.48967806
H        3.98010718       2.24889658      -0.92147181
H        0.75825405       2.54967065      -3.81677189
H       -0.61390565       1.10780580      -2.42212684
H        4.49863776       4.24661329      -1.75545391
H        5.64491859       5.64700101      -3.74628952
H        4.51043381       4.78121544      -6.04252385
H        1.68487884       3.04343393      -5.94679131
H        5.09022949      -1.08918497      -5.47582465
H        2.21754499      -3.40916461      -7.51288213
H        0.78801147      -4.62471144      -9.05320181
H       -0.83028463      -3.42945166     -10.49476664
H        0.50263917       0.32075615      -8.90667075
C       -0.88138146      -0.88138146      -0.88138146
C       -0.47350057      -1.19677382      -2.17482797
C       -1.28127087      -2.00344672      -2.98401424
C       -2.49692702      -2.50910064      -2.49584925
C       -2.90057766      -2.16795945      -1.19672479
C       -2.09264803      -1.35926722      -0.39088095
N       -3.31188224      -3.33566898      -3.33751821
C       -3.34422158      -3.24098377      -4.72135604
C       -4.29448071      -4.10105614      -5.22040879
C       -4.84631197      -4.79017715      -4.12370272
C       -4.20503973      -4.35324688      -2.97882211
C       -4.31730205      -4.82610481      -1.64535384
C       -3.43757883      -5.66432769      -1.05912046
C       -2.29559729      -6.29583748      -1.74677683
O       -2.14455197      -6.37192894      -2.95781500
N       -1.40462582      -6.88143421      -0.90360227
C       -1.78858135      -7.50436607       0.24809419
O       -1.22431205      -8.56346514       0.52062777
N       -2.83961414      -6.92560671       0.95872861
C       -3.09912874      -7.36262844       2.32121239
C       -2.08021653      -7.91399014       3.12191616
C       -2.31671018      -8.32168122       4.43984750
C       -3.58230035      -8.18376964       4.99609202
C       -4.60512299      -7.64341421       4.22591394
Br      -6.33242541      -7.45281742       4.97303934
C       -4.37333475      -7.24229532       2.90534690
C       -3.61909526      -5.90461554       0.40346592
O       -4.37432979      -5.16559494       1.03795446
H        0.47149402      -0.82522796      -2.56335820
H       -0.91852580      -2.25411333      -3.97783644
H       -3.86484862      -2.46453707      -0.79531089
H       -2.42751775      -1.09825966       0.60975042
H       -2.72670303      -2.52673956      -5.24726236
H       -4.55068729      -4.22258523      -6.26493661
H       -5.59743275      -5.56937623      -4.16736411
H       -5.16189275      -4.43332080      -1.07989052
H       -0.68575584      -7.39299873      -1.39811460
H       -1.06057478      -8.01648676       2.75579903
H       -1.50531591      -8.74097438       5.02978845
H       -3.75974655      -8.49682329       6.02153949
H       -5.21682160      -6.85468699       2.34144252
C       -0.88138146       0.88138146       0.88138146
C       -1.13392589       0.51139625       2.19978022
C       -1.94278071       1.31785091       3.00810022
C       -2.49253285       2.50691698       2.50242709
C       -2.24177536       2.85606857       1.16741797
C       -1.43517451       2.04687789       0.36074380
N       -3.31777714       3.32267056       3.34462173
C       -4.09556250       2.82893266       4.38206623
C       -4.83868327       3.84971058       4.92755178
C       -4.48678696       5.02924843       4.24415646
C       -3.51832167       4.70847808       3.31030897
C       -2.76243462       5.56164192       2.46468416
C       -1.49519432       5.95145867       2.71437400
C       -0.75006356       5.63955585       3.94859219
O       -1.23851894       5.23986573       4.99591124
N        0.58070118       5.90410089       3.86626258
C        1.07355380       6.96084568       3.15756136
O        1.99648794       7.59169126       3.67194611
N        0.42912055       7.27432489       1.96128791
C        1.07213875       8.18507569       1.02760785
C        2.47138491       8.34232968       1.00134573
C        3.10016562       9.20378908       0.09492044
C        2.34380548       9.93015648      -0.81637304
C        0.96085751       9.79327679      -0.80979604
Br      -0.07847337      10.77896457      -2.04523445
C        0.32903930       8.93865414       0.10066833
C       -0.80001119       6.69703996       1.62319373
O       -1.30013686       6.70510127       0.49673214
H       -0.70452471      -0.39871308       2.61128050
H       -2.09507878       1.01441953       4.04097726
H       -2.70332879       3.72086338       0.70050442
H       -1.26047850       2.32970397      -0.67415549
H       -4.10534165       1.77484671       4.62051659
H       -5.54877296       3.75103031       5.73840586
H       -4.85978510       6.02529790       4.44909010
H       -3.26045208       5.86910233       1.54554967
H        1.05347374       5.77876077       4.75158214
H        3.12086510       7.77611055       1.66601706
H        4.18331686       9.29833001       0.10148868
H        2.83693683      10.59371143      -1.52174425
H       -0.75599015       8.89417842       0.07989750
C        0.88138146      -0.88138146       0.88138146
C        1.45403449      -2.03622650       0.35484137
C        2.26096015      -2.84553217       1.16223952
C        2.50865042      -2.49419211       2.49903439
C        1.91050500      -1.33667459       3.01808232
C        1.10216567      -0.53088866       2.20974187
N        3.33925235      -3.33364936       3.31216772
C        3.46488400      -4.70430004       3.13737735
C        4.25441749      -5.22607185       4.13545630
C        4.67520078      -4.14788981       4.93710125
C        4.15260342      -2.98623415       4.39827116
C        4.38467290      -1.63583077       4.76825704
C        5.23104478      -0.80560857       4.12437364
C        6.11657497      -1.20666996       3.01496668
O        6.40663229      -2.35535691       2.71230670
N        6.67628291      -0.15843742       2.35494196
C        7.04672553       0.99134894       2.98947664
O        8.11584218       1.49476662       2.64607386
N        6.22161303       1.43678449       4.02166371
C        6.39365204       2.78690333       4.53379608
C        6.94440970       3.80948474       3.73736554
C        7.09813271       5.11571619       4.21612738
C        6.69904225       5.43665302       5.50758873
C        6.15358943       4.44479441       6.31382823
Br       5.60852281       4.87071349       8.07439418
C        6.00606319       3.13613805       5.84035803
C        5.20549391       0.62770822       4.54245919
O        4.27687607       1.02417908       5.24927327
H        1.28398458      -2.31521593      -0.68210838
H        2.71592098      -3.72376913       0.71078546
H        2.00255598      -1.05855165       4.06358896
H        0.63985426       0.35705872       2.63323145
H        2.93679288      -5.21756552       2.34634656
H        4.50583388      -6.27127677       4.26109847
H        5.33994572      -4.20376069       5.79046668
H        3.79317917      -1.27336237       5.60856254
H        7.35507456      -0.45538601       1.66640860
H        7.24432802       3.62989145       2.70682595
H        7.52506633       5.88069857       3.57213408
H        6.81549132       6.45347836       5.87301739
H        5.60147189       2.39581402       6.52440820
