193
Properties=species:S:1:pos:R:3 pbc="F F F"
C        0.00000000       0.00000000       0.00000000
N        1.77462784       7.38301799      -9.69791805
C        2.60340142       7.49265284      -8.62996203
O        3.56559571       8.24939126      -8.61686971
N        2.24528579       6.71200160      -7.55615529
N        1.11922720       5.95013473      -7.58640606
C        0.54957180       5.57201767      -6.47834160
C        0.99024037       5.99489898      -5.07257187
C        1.56728169       4.96471892      -4.10067827
C        2.74885836       4.09760337      -4.57688737
C        3.39118411       3.33237543      -3.39800728
N        4.66423006       3.25736718      -3.12080544
N        5.61363418       3.61420693      -4.03647122
C        6.13599695       4.87237525      -4.20978598
O        7.24803479       5.05276639      -4.68866351
N        5.34553866       5.91273641      -3.85999786
C        2.48735440       2.51096296      -2.50453926
C        1.32546967       1.91558761      -3.01379623
C        0.50760849       1.12794575      -2.19902837
C        0.88133570       0.88133570      -0.88133570
C        2.06415832       1.41539200      -0.37396734
C        2.86419370       2.23245118      -1.18295600
C       -0.75144122       4.84216431      -6.64858780
C       -1.09470012       3.71075384      -5.91051227
C       -2.30777628       3.05330900      -6.15268173
C       -3.17655983       3.52777995      -7.13484432
Br      -4.80602899       2.62928083      -7.46379706
C       -2.84546902       4.65413676      -7.88109357
C       -1.63458850       5.30744079      -7.63857365
H        0.96246631       6.79269265      -9.58620496
H        1.90389738       7.97157046     -10.50460596
H        2.82454080       6.78960455      -6.73104703
H        0.09641068       6.42470682      -4.59700857
H        1.68432141       6.83779600      -5.13298054
H        0.74573064       4.33618741      -3.75360066
H        1.88419761       5.51277076      -3.20185988
H        3.48526005       4.74403707      -5.05533956
H        2.43075022       3.37662471      -5.33559139
H        6.38904997       2.95470462      -4.05160463
H        4.77237938       5.76585592      -3.04812954
H        5.80815927       6.80901492      -3.94498197
H        1.05184325       2.02829622      -4.05659542
H       -0.40194330       0.69501093      -2.60822031
H        2.37935834       1.19233195       0.64260214
H        3.79389900       2.62700248      -0.77828491
H       -0.42699230       3.29545464      -5.17179815
H       -2.56077426       2.16380102      -5.58050599
H       -3.51209420       5.02710889      -8.65473362
H       -1.38156378       6.18389078      -8.23243666
N       -1.58187431      -8.72451223      -8.54917734
C       -2.57633028      -8.49325269      -7.65643332
O       -3.65522492      -9.06949747      -7.70713429
N       -2.25174287      -7.58876359      -6.67293621
N       -1.01044774      -7.03706951      -6.60825074
C       -0.56369135      -6.54964538      -5.48659434
C       -1.29647296      -6.61904728      -4.14219097
C       -1.81324755      -5.34280648      -3.47662486
C       -2.71489466      -4.40537062      -4.30308381
C       -3.37881586      -3.33554756      -3.40720340
N       -4.64149890      -3.00601300      -3.39489078
N       -5.48268230      -3.37516388      -4.40646615
C       -6.20199660      -4.54308438      -4.47307720
O       -7.23673465      -4.63159780      -5.12113225
N       -5.69205708      -5.60991684      -3.81629901
C       -2.48913074      -2.51350982      -2.50021606
C       -1.16840339      -2.22061109      -2.86583903
C       -0.35584149      -1.43260460      -2.04613652
C       -0.88133570      -0.88133570      -0.88133570
C       -2.21027754      -1.11186979      -0.53137033
C       -3.01214415      -1.93010616      -1.33735056
C        0.86328131      -6.08379502      -5.51879719
C        1.29447276      -4.90165993      -4.91937882
C        2.63392304      -4.50563972      -5.02649776
C        3.54139095      -5.29244616      -5.73500924
Br       5.34414781      -4.74629558      -5.88490114
C        3.12425917      -6.47320252      -6.34081796
C        1.78767283      -6.86549737      -6.23360140
H       -0.70014128      -8.26146285      -8.37975978
H       -1.69078727      -9.42839935      -9.26088717
H       -2.95957845      -7.41298751      -5.97262642
H       -0.58949879      -7.08710484      -3.44152244
H       -2.12050822      -7.33572509      -4.19886464
H       -0.95276702      -4.79913491      -3.08361678
H       -2.36906140      -5.65042334      -2.57934351
H       -3.47533053      -5.00519547      -4.80411068
H       -2.14719412      -3.90363229      -5.09213992
H       -6.10464509      -2.61535924      -4.67535489
H       -5.23883966      -5.40375524      -2.94376994
H       -6.29826988      -6.42004188      -3.84384440
H       -0.75815956      -2.57349199      -3.80508335
H        0.67338772      -1.23742524      -2.33725042
H       -2.63542008      -0.65051033       0.35684227
H       -4.05280477      -2.08575976      -1.06062185
H        0.60932611      -4.25101195      -4.39857465
H        2.95788328      -3.57510440      -4.56631161
H        3.82206337      -7.08938847      -6.90242321
H        1.46966155      -7.78754267      -6.71688255
N       -1.59174796       8.35393177       8.90988415
C       -2.54777258       8.22114502       7.95709869
O       -3.59739956       8.85059660       7.98386052
N       -2.21743037       7.35144557       6.94456673
N       -1.00385809       6.73855719       6.91335271
C       -0.52330146       6.28528059       5.79134902
C       -1.17919839       6.46122647       4.41728636
C       -1.72359590       5.24943316       3.65964983
C       -2.71400230       4.32072980       4.38861700
C       -3.38250605       3.33423208       3.40482869
N       -4.65776296       3.07327861       3.31136111
N       -5.53180449       3.43510389       4.29740395
C       -6.19382134       4.63473809       4.38959875
O       -7.25574087       4.74529557       4.98842826
N       -5.59655782       5.70474053       3.81697458
C       -2.48849006       2.51288525       2.50148132
C       -1.20550508       2.13217507       2.91717336
C       -0.39132542       1.34446276       2.09879443
C       -0.88133570       0.88133570       0.88133570
C       -2.17649018       1.19949544       0.47753204
C       -2.97774971       2.01748037       1.28437080
C        0.87463226       5.74325545       5.87068771
C        1.27688656       4.57162210       5.23183045
C        2.58707525       4.10011043       5.38517927
C        3.49415086       4.80086425       6.17935105
Br       5.25655763       4.15285701       6.39074952
C        3.10550946       5.97005342       6.82521735
C        1.79799431       6.43770253       6.67171772
H       -0.72673765       7.85383234       8.76079393
H       -1.70267478       9.02581879       9.65158023
H       -2.89502856       7.24906237       6.20110146
H       -0.41329697       6.92580946       3.77901964
H       -1.96788522       7.21689422       4.47031850
H       -0.87196982       4.68133377       3.28221513
H       -2.21473773       5.63100298       2.75308753
H       -3.46875847       4.93406928       4.88180893
H       -2.21504712       3.75038684       5.17753236
H       -6.20470050       2.69681829       4.49384043
H       -5.10860604       5.51906305       2.95869576
H       -6.16174706       6.54350263       3.85690647
H       -0.82845942       2.41494512       3.89333036
H        0.60983091       1.08045193       2.43066692
H       -2.57657644       0.80675592      -0.45424422
H       -3.99306435       2.24195336       0.96416867
H        0.58843089       3.98538413       4.64330725
H        2.88767959       3.17807508       4.89313725
H        3.80268320       6.51919177       7.45323973
H        1.50166794       7.34978986       7.18664173
N        1.58081210      -8.62356108       8.65119070
C        2.56543356      -8.41949905       7.74108368
O        3.63661222      -9.01052756       7.78471690
N        2.23958185      -7.52453730       6.74932352
N        1.00548322      -6.95590186       6.69438291
C        0.54953215      -6.47812184       5.57227707
C        1.26169890      -6.57731741       4.21869491
C        1.78694768      -5.31832802       3.52740319
C        2.71376278      -4.38234603       4.32724028
C        3.37984477      -3.33515122       3.40657083
N        4.64679316      -3.02414939       3.37146014
N        5.49718385      -3.39096518       4.37616331
C        6.20063949      -4.56811169       4.44940700
O        7.24328627      -4.66234158       5.08383685
N        5.66606121      -5.63671447       3.81549726
C        2.48894324      -2.51334651       2.50056687
C        1.17796655      -2.19615877       2.88072819
C        0.36495064      -1.40824916       2.06138281
C        0.88133570      -0.88133570       0.88133570
C        2.20164236      -1.13606713       0.51580818
C        3.00333483      -1.95424138       1.32202466
C       -0.87002788      -5.99123970       5.61809908
C       -1.29293454      -4.81166175       5.00783878
C       -2.62490218      -4.39479340       5.12832323
C       -3.53315369      -5.15817769       5.86104045
Br      -5.32556911      -4.58388877       6.02872924
C       -3.12419155      -6.33608232       6.47787054
C       -1.79503547      -6.74918599       6.35727542
H        0.70341865      -8.15025520       8.48769006
H        1.68996143      -9.31871886       9.37139351
H        2.93963729      -7.36904841       6.03650670
H        0.53803986      -7.04504190       3.53504431
H        2.07615241      -7.30497322       4.27397232
H        0.92871490      -4.76791671       3.13888710
H        2.32525837      -5.64674239       2.62682748
H        3.47273444      -4.98590774       4.82599451
H        2.16477183      -3.86122332       5.11697117
H        6.13376050      -2.63648726       4.62511146
H        5.20324318      -5.43648837       2.94663329
H        6.26098125      -6.45505910       3.84611581
H        0.77637348      -2.52961488       3.83074653
H       -0.65706256      -1.19404644       2.36430406
H        2.62041897      -0.69364211      -0.38497293
H        4.03754975      -2.12888671       1.03274992
H       -0.60618351      -4.17850770       4.46793630
H       -2.94217531      -3.46632847       4.65937958
H       -3.82251452      -6.93401561       7.05824721
H       -1.48325435      -7.66874676       6.84927126
