185
Properties=species:S:1:pos:R:3 pbc="F F F"
C        0.00000000       0.00000000       0.00000000
C        0.88129135       0.88129135      -0.88129135
C        0.54886082       1.07614822      -2.21845474
C        1.35357945       1.88599573      -3.02825002
C        2.50316586       2.49690999      -2.50727353
C        2.81573400       2.30122471      -1.15170812
C        2.00864658       1.49340966      -0.34283228
N        3.34375437       3.33464713      -3.31539763
C        4.11527314       4.37255578      -2.80804589
C        4.75115091       5.02718017      -3.83804615
C        4.39122594       4.36863036      -5.02734574
C        3.55776524       3.31332142      -4.69996433
C        3.01397224       2.31639403      -5.55066840
C        3.54090651       1.08777032      -5.73586828
C        4.78948105       0.60829203      -5.11229436
O        5.50886706       1.25746414      -4.36236422
N        5.11307979      -0.67805566      -5.41523653
C        4.30085479      -1.61834328      -5.97852371
O        4.59940405      -2.79776316      -5.78367483
N        3.17707530      -1.16152060      -6.66149634
C        2.40262941      -2.11638529      -7.42843013
C        3.02784541      -3.17923977      -8.09816670
C        2.28918733      -4.09308818      -8.85592454
C        0.90376153      -3.97096275      -8.95201414
C        0.24021743      -2.93238310      -8.28775477
C       -1.25319425      -2.76786215      -8.34647619
C        1.00361143      -2.01289880      -7.53884004
C        2.77758933       0.17911692      -6.64330340
O        1.87249758       0.64824755      -7.33673417
H       -0.34362612       0.61908874      -2.63770055
H        1.01424805       2.06361412      -4.04298296
H        3.70545087       2.73535655      -0.70261983
H        2.27398219       1.34701088       0.70161081
H        4.12047865       4.60277929      -1.75253926
H        5.40527592       5.88254033      -3.73473026
H        4.73704478       4.61093477      -6.02435750
H        2.11190239       2.61211084      -6.08518453
H        5.90614301      -1.04508984      -4.91002397
H        4.10747761      -3.30694872      -8.07440713
H        2.81178592      -4.89651330      -9.37049362
H       -1.58905373      -1.91887842      -7.74063746
H       -1.75212911      -3.66025543      -7.95505260
H       -1.57817877      -2.58392308      -9.37549015
H        0.47235223      -1.22182249      -7.01244789
C        0.20220648      -4.94250612      -9.75046514
C       -0.38534587      -5.75617369     -10.41916785
Br      -1.33536833      -7.07180533     -11.50040358
C       -0.88129135      -0.88129135      -0.88129135
C       -2.25228418      -0.65037555      -0.94080405
C       -3.06248454      -1.45512463      -1.75021602
C       -2.50670927      -2.50401165      -2.49662845
C       -1.11893615      -2.71368822      -2.43604244
C       -0.31001012      -1.90650492      -1.62837348
N       -3.31481006      -3.34204219      -3.33694687
C       -2.83900495      -3.98290919      -4.47396066
C       -3.86792783      -4.65109344      -5.09735596
C       -5.02107605      -4.44753988      -4.31858611
C       -4.67122990      -3.67496913      -3.22485196
C       -5.47359127      -3.28647647      -2.12096694
C       -5.51062497      -3.92265224      -0.93126789
C       -4.75166661      -5.14710428      -0.61129655
O       -4.00572517      -5.74607516      -1.37689509
N       -4.91673813      -5.59597802       0.66245549
C       -5.45967843      -4.91177349       1.71041670
O       -5.14149246      -5.28465763       2.84083437
N       -6.26584084      -3.81814623       1.40693603
C       -7.00680981      -3.19007126       2.48220681
C       -7.53153468      -3.95231452       3.53707685
C       -8.26408216      -3.35576027       4.56781874
C       -8.47931454      -1.97837073       4.57287234
C       -7.96097321      -1.18044556       3.54582967
C       -8.15124775       0.31074328       3.51508467
C       -7.23573975      -1.80188057       2.50806764
C       -6.39422152      -3.31402787       0.10823974
O       -7.19456861      -2.43752409      -0.22538659
H       -2.69992224       0.16402507      -0.37726601
H       -4.11230985      -1.19107522      -1.81746006
H       -0.63991201      -3.52458871      -2.97892652
H        0.76080747      -2.09205202      -1.58813770
H       -1.81001248      -3.87942917      -4.78635556
H       -3.78702169      -5.22440737      -6.01111744
H       -6.00477874      -4.85735034      -4.51020797
H       -6.10100188      -2.41303580      -2.29516009
H       -4.32091992      -6.36929441       0.91913719
H       -7.41179213      -5.03263431       3.56949042
H       -8.66503362      -3.98231110       5.36157849
H       -7.64881761       0.76324609       2.65286620
H       -7.72536298       0.76941282       4.41328210
H       -9.21466649       0.55981809       3.44146010
H       -6.82267059      -1.16668908       1.72638203
C       -9.24440425      -1.42670808       5.66094682
C       -9.88516688      -0.96469060       6.57220919
Br     -10.92122586      -0.21764743       8.04564337
C       -0.88129135       0.88129135       0.88129135
C       -1.37893248       2.08152197       0.38300933
C       -2.18958938       2.89033763       1.18789818
C       -2.49789331       2.50814331       2.50131275
C       -1.99910243       1.28642375       2.98314064
C       -1.19096818       0.47772060       2.17619974
N       -3.32950936       3.31774756       3.34654221
C       -4.11433751       2.80820023       4.37333706
C       -4.84377358       3.82276665       4.94983700
C       -4.49104567       5.01087898       4.28527739
C       -3.53956136       4.70296734       3.32852230
C       -2.82372995       5.58205172       2.47525300
C       -1.58513299       6.05850247       2.72090964
C       -0.80201519       5.77008669       3.93796556
O       -1.17229438       5.07774696       4.87865408
N        0.43747293       6.33088349       3.95685010
C        1.11055636       6.87121718       2.90037439
O        2.33772673       6.92805865       2.99498379
N        0.35795207       7.24465216       1.79035095
C        1.01222645       7.99176185       0.73513885
C        2.01328602       8.92977698       1.03028139
C        2.63531158       9.66829454       0.01904074
C        2.27732314       9.47678179      -1.31464573
C        1.29260112       8.54061619      -1.65242597
C        0.88345279       8.28548179      -3.07660920
C        0.66737746       7.81449473      -0.61756460
C       -1.00071417       6.93642562       1.66286986
O       -1.73230157       7.35986161       0.76531612
H       -1.15909062       2.38980487      -0.63573232
H       -2.60995131       3.77974776       0.73114606
H       -2.19147337       0.95237314       3.99958074
H       -0.80697786      -0.45960643       2.57201082
H       -4.13452423       1.75022224       4.59105075
H       -5.54786928       3.71120734       5.76346988
H       -4.86120306       6.00387572       4.50725827
H       -3.35649040       5.87987106       1.57283631
H        1.01627881       6.05198133       4.73537462
H        2.31399048       9.13372465       2.05520185
H        3.39842223      10.39496064       0.28922782
H        0.12351625       7.49887506      -3.14265349
H        1.74285911       7.95352337      -3.66799620
H        0.45652947       9.19045727      -3.52053950
H       -0.08289574       7.07669458      -0.89661269
C        2.95336488      10.27102399      -2.30749361
C        3.51954983      10.93620183      -3.13900370
Br       4.43502302      12.01173814      -4.48348520
C        0.88129135      -0.88129135       0.88129135
C        0.92278546      -2.25537712       0.66530120
C        1.73213565      -3.06562972       1.47005983
C        2.49659911      -2.50662511       2.50412516
C        2.45397907      -1.11598742       2.69870033
C        1.64632973      -0.30705609       1.89150270
N        3.33725321      -3.31475569       3.34179024
C        4.48673851      -2.84472542       3.96441087
C        5.10609019      -3.87309386       4.63719318
C        4.31216455      -5.01953900       4.45549849
C        3.21372621      -4.66599295       3.69133184
C        2.09656492      -5.46008102       3.32438874
C        0.91382400      -5.47646277       3.97425834
C        0.61631346      -4.70022405       5.19352993
O        1.39698753      -3.95634567       5.77536222
N       -0.65403332      -4.84577556       5.65851842
C       -1.71572298      -5.38442989       4.99232831
O       -2.83819174      -5.04926570       5.37424175
N       -1.43374570      -6.20621091       3.90458583
C       -2.52432713      -6.94192858       3.29707280
C       -3.57629941      -7.44605486       4.07701689
C       -4.62190525      -8.17350382       3.50042513
C       -4.64501110      -8.40411272       2.12571130
C       -3.62133936      -7.90645378       1.31047468
C       -3.60966293      -8.11379185      -0.17870912
C       -2.56851392      -7.18611833       1.91194826
C       -0.14237903      -6.35497751       3.38741118
O        0.17227025      -7.16884894       2.51636010
H        0.34504894      -2.70570226      -0.13758803
H        1.78458909      -4.11904860       1.21720744
H        3.01137684      -0.63408501       3.49796541
H        1.62022554       0.76616458       2.06532130
H        4.80946937      -1.82057215       3.84575569
H        6.02715196      -3.79613605       5.19925849
H        4.49737222      -6.00069155       4.87427327
H        2.25377735      -6.09919366       2.45622676
H       -0.89521508      -4.23843874       6.42785348
H       -3.59510036      -7.31383291       5.15620346
H       -5.41295161      -8.55835989       4.14035795
H       -2.74705158      -7.62629350      -0.64653660
H       -4.50817234      -7.68291314      -0.63207273
H       -3.55081234      -9.18070677      -0.41650612
H       -1.78950223      -6.78910602       1.26337385
C       -5.74779787      -9.16294497       1.59501841
C       -6.67138180      -9.79846698       1.15056311
Br      -8.16473889     -10.82605232       0.43191649
