198
Properties=species:S:1:pos:R:3 pbc="F F F"
C        1.79119537       1.79119537      -1.79119537
C        1.45876484       1.98605224      -3.12835877
C        2.26348347       2.79589975      -3.93815404
C        3.41306988       3.40681401      -3.41717755
C        3.72563802       3.21112873      -2.06161214
C        2.91855061       2.40331368      -1.25273630
N        4.25365840       4.24455115      -4.22530165
C        5.02517716       5.28245980      -3.71794991
C        5.66105494       5.93708419      -4.74795018
C        5.30112996       5.27853438      -5.93724977
C        4.46766927       4.22322544      -5.60986836
C        3.92387627       3.22629806      -6.46057242
C        4.45081053       1.99767434      -6.64577231
C        5.69938507       1.51819605      -6.02219838
O        6.41877108       2.16736816      -5.27226824
N        6.02298381       0.23184836      -6.32514055
C        5.21075881      -0.70843925      -6.88842773
O        5.50930807      -1.88785914      -6.69357886
N        4.08697932      -0.25161658      -7.57140037
C        3.31253343      -1.20648126      -8.33833416
C        3.93774944      -2.26933574      -9.00807073
C        3.19909135      -3.18318415      -9.76582857
C        1.81366556      -3.06105873      -9.86191817
Br       0.88884696      -4.34178699     -10.91446898
C        1.15012145      -2.02247908      -9.19765879
C       -0.34329022      -1.85795812      -9.25638022
C        1.91351546      -1.10299478      -8.44874406
C        3.68749336       1.08902095      -7.55320742
O        2.78240160       1.55815157      -8.24663820
H        0.56627791       1.52899277      -3.54760457
H        1.92415208       2.97351814      -4.95288699
H        4.61535489       3.64526057      -1.61252385
H        3.18388621       2.25691490      -0.20829321
H        5.03038268       5.51268332      -2.66244329
H        6.31517994       6.79244435      -4.64463428
H        5.64694880       5.52083880      -6.93426152
H        3.02180641       3.52201487      -6.99508855
H        6.81604703      -0.13518581      -5.81992800
H        5.01738163      -2.39704469      -8.98431115
H        3.72168994      -3.98660928     -10.28039764
H       -0.67914971      -1.00897439      -8.65054149
H       -0.84222508      -2.75035141      -8.86495662
H       -0.66827475      -1.67401906     -10.28539418
H        1.38225626      -0.31191847      -7.92235192
C       -1.79119537      -1.79119537      -1.79119537
C       -2.90053185      -1.24396022      -2.42868378
C       -3.70886195      -2.04903528      -3.23964003
C       -3.41827187      -3.41037851      -3.40841106
C       -2.28626494      -3.94288181      -2.76923215
C       -1.47766881      -3.13597787      -1.96095391
N       -4.22920435      -4.25726325      -4.23704360
C       -3.74950904      -5.38525617      -4.89082167
C       -4.74889220      -5.94015261      -5.65704449
C       -5.89941299      -5.15529008      -5.46221104
C       -5.58659662      -4.14742328      -4.56674317
C       -6.44278130      -3.16834771      -3.99961774
C       -7.03559799      -3.26743884      -2.79122035
C       -6.91655489      -4.43134977      -1.89187484
O       -6.28083872      -5.45254671      -2.12502206
N       -7.57361473      -4.29845620      -0.70790180
C       -8.07243851      -3.14819438      -0.17011441
O       -8.23458998      -3.13161826       1.05118046
N       -8.28758450      -2.08118298      -1.03799563
C       -8.99036903      -0.91736733      -0.53664997
C      -10.02695570      -1.04943985       0.39991113
C      -10.72244316       0.06723954       0.87346784
C      -10.38858746       1.34555869       0.42850378
Br     -11.38611190       2.80552231       1.11906064
C       -9.35145254       1.52153251      -0.49538114
C       -8.94253118       2.88024675      -0.99284744
C       -8.67006188       0.38210460      -0.97130746
C       -7.86249551      -2.09645336      -2.37077286
O       -8.14732218      -1.23465326      -3.20521593
H       -3.13614743      -0.18876894      -2.31795887
H       -4.51925634      -1.56106940      -3.77023147
H       -2.02704423      -4.99546216      -2.85063292
H       -0.61153352      -3.57037435      -1.46718645
H       -2.71604917      -5.68729173      -4.80216838
H       -4.65243479      -6.81785265      -6.28197113
H       -6.87530287      -5.32879503      -5.89795122
H       -6.61824152      -2.29452525      -4.62614306
H       -7.40989746      -5.04376175      -0.04713000
H      -10.34193372      -2.02508809       0.76237372
H      -11.52807504      -0.07740323       1.58999997
H       -8.09526102       2.81766851      -1.68482487
H       -8.63008011       3.51540582      -0.15770585
H       -9.76896950       3.35614968      -1.53028055
H       -7.85362770       0.53577125      -1.67483326
C       -1.79119537       1.79119537       1.79119537
C       -1.46419861       1.97815315       3.13082409
C       -2.26891710       2.78797657       3.94064359
C       -3.41311893       3.40679475       3.41714776
C       -3.72017032       3.21900123       2.05920734
C       -2.91307786       2.41119464       1.25032809
N       -4.25356683       4.24468531       4.22525906
C       -5.01775701       5.28862946       3.71920041
C       -5.65541692       5.94139156       4.74928082
C       -5.30425604       5.27552982       5.93712826
C       -4.47424547       4.21783510       5.60868250
C       -3.93921206       3.21433019       6.45720450
C       -4.47281765       1.98736021       6.63407932
C       -5.72066950       1.51676482       6.00234519
O       -6.43341312       2.17287964       5.25211473
N       -6.05177568       0.23055081       6.29764624
C       -5.24668450      -0.71623194       6.86029473
O       -5.54987387      -1.89328784       6.65844176
N       -4.12401387      -0.26797991       7.55072915
C       -3.35773643      -1.23012213       8.31677203
C       -3.99113829      -2.29314907       8.97849520
C       -3.26041054      -3.21406271       9.73538795
C       -1.87489497      -3.09896986       9.83859989
Br      -0.96114326      -4.38903136      10.88941705
C       -1.20330653      -2.06042500       9.18241964
C        0.29057015      -1.90327360       9.24897561
C       -1.95878500      -1.13379996       8.43427970
C       -3.71811725       1.07081734       7.54078713
O       -2.81412095       1.53236563       8.24070479
H       -0.57588080       1.51488721       3.55210723
H       -1.93357065       2.95918668       4.95779987
H       -4.60568479       3.65946789       1.60798665
H       -3.17414167       2.27099257       0.20396008
H       -5.01686487       5.52385879       2.66478562
H       -6.30499610       6.80032541       4.64693707
H       -5.65365477       5.51476028       6.93363408
H       -3.03830252       3.50323362       6.99737369
H       -6.84415702      -0.13032422       5.78695641
H       -5.07123681      -2.41561846       8.94902974
H       -3.78923523      -4.01742018      10.24366325
H        0.63330835      -1.05304104       8.64876678
H        0.78713598      -2.79616595       8.85568206
H        0.61153212      -1.72574232      10.28037481
H       -1.42130211      -0.34277629       7.91416389
C        1.79119537      -1.79119537       1.79119537
C        2.60371806      -1.20968643       2.75977136
C        3.41080082      -2.01551997       3.57121647
C        3.41828038      -3.40844598       3.41033508
C        2.58101107      -3.97973773       2.43763009
C        1.77274882      -3.17283066       1.62902112
N        4.23426033      -4.25780825       4.23144262
C        3.91635960      -5.57606740       4.53315988
C        4.85601778      -6.09700314       5.39306839
C        5.80818533      -5.08754422       5.62118457
C        5.44273081      -3.97589451       4.88213774
C        6.13840179      -2.74954843       4.72279653
C        6.95312037      -2.45248946       3.68864734
C        7.27808676      -3.37666561       2.58502714
O        6.86506128      -4.52439083       2.46895538
N        8.09564456      -2.85184856       1.63247961
C        8.40494901      -1.53571611       1.45008217
O        8.78412971      -1.20574790       0.32515017
N        8.20011307      -0.67875546       2.52789458
C        8.69413531       0.67996503       2.43021605
C        9.88928734       0.96530722       1.75250430
C       10.38210571       2.27121432       1.67084437
C        9.68318599       3.32554745       2.25688646
Br      10.42507115       5.06600021       2.10245800
C        8.47967677       3.08495227       2.93057667
C        7.68061023       4.18979001       3.56431165
C        8.00515775       1.75941589       3.01352289
C        7.54882114      -1.08253010       3.69837049
O        7.46443743      -0.40064719       4.72210675
H        2.60406949      -0.13274509       2.90606066
H        3.97173967      -1.52161170       4.35720584
H        2.56300264      -5.05178358       2.25835309
H        1.13927330      -3.63458364       0.87523739
H        3.01669615      -6.03690837       4.15190477
H        4.85113634      -7.09802707       5.80309516
H        6.69854792      -5.17202870       6.23147250
H        5.98569461      -2.02830894       5.52490629
H        8.23609247      -3.44026579       0.82443096
H       10.48442539       0.17716855       1.29739124
H       11.31861123       2.45025591       1.14712299
H        6.75711070       3.81088222       4.01618891
H        7.39085008       4.93174124       2.81327129
H        8.25838769       4.67359284       4.35830552
H        7.05867520       1.58999135       3.52400586
C       -0.00445707       0.01189536      -1.78238275
H       -0.66409135       0.67374010      -2.43557963
H        0.65740317      -0.63156657      -2.45157240
C       -0.90989263      -0.90692880      -0.91072765
C        0.90977584       0.90977584      -0.90977584
C       -0.00465871       1.77757030       0.00794375
H       -0.66225468       2.44313916      -0.64384735
H        0.64322798       2.43503045       0.67728295
C       -1.78241447       0.00034974      -0.00472694
H       -2.45427497      -0.65498947       0.64260836
H       -2.43311707       0.67328779      -0.65473579
C       -0.91132561       0.90220522       0.91563759
C       -0.01476271      -0.02253852       1.78660255
H       -0.67934791      -0.69751639       2.42135241
H        0.63392994       0.61504881       2.47327442
C        0.01484550      -1.77751727      -0.01636693
H        0.67870853      -2.42144646      -0.68295456
H       -0.62264859      -2.45592969       0.64226336
C        1.78714474       0.01002794       0.00389507
H        2.44202412       0.67113390       0.66197326
H        2.45385902      -0.65136977      -0.64189061
C        0.91606151      -0.90478549       0.90901405
