134
Properties=species:S:1:pos:R:3 pbc="F F F"
C        1.78180981       1.78180981      -1.78180981
C        1.63511656       1.87873372      -3.14213972
C        2.59963464       2.77104486      -3.69820690
C        3.43104445       3.31365408      -2.73502614
C        4.51604684       4.24885755      -2.90648886
N        4.83786936       4.64021361      -4.09663862
N        5.86067790       5.53651141      -4.19900017
C        6.28964900       5.94951420      -5.45499091
O        5.82192599       5.52643682      -6.51019967
C        7.35354400       6.93174813      -5.42098234
O        7.80509820       7.42145385      -4.22176562
C        8.78043332       8.33157678      -4.50482163
C        9.49540720       9.07440834      -3.56742562
C       10.45703877       9.95988999      -4.07134180
C       10.67478941      10.07536158      -5.44665651
Br      11.98568652      11.28453525      -6.08231531
C        9.94343752       9.31748917      -6.36969876
C        8.97172242       8.42702063      -5.87908098
C        8.05003406       7.52318264      -6.45879369
S        3.04058490       2.73996849      -1.17129808
H        0.88741751       1.34766036      -3.71876889
H        2.68255918       3.00842566      -4.75391516
H        5.05205902       4.60916543      -2.00960382
H        6.30614768       5.92585179      -3.37347722
H        9.31297640       8.97312802      -2.50442009
H       11.03656081      10.56182712      -3.37416646
H       10.11488220       9.41192755      -7.43770618
H        7.89384902       7.31800205      -7.50985876
C       -1.78180981      -1.78180981      -1.78180981
C       -2.97803346      -2.31010623      -1.36785030
C       -3.57550303      -3.09358633      -2.39979703
C       -2.80839164      -3.12080428      -3.55052875
C       -3.07827787      -3.79729001      -4.79582537
N       -4.13861343      -4.52987789      -4.90623027
N       -4.35229812      -5.13354979      -6.11034157
C       -5.44373813      -5.97909346      -6.27132252
O       -6.23279036      -6.25563968      -5.37013244
C       -5.57697934      -6.52169176      -7.60760337
O       -4.70933865      -6.13981103      -8.59916799
C       -5.09102375      -6.79067588      -9.73513212
C       -4.48038280      -6.67459347     -10.98226490
C       -5.03306738      -7.43188168     -12.02332150
C       -6.13827915      -8.25735047     -11.80117788
Br      -6.85116678      -9.26351910     -13.23785120
C       -6.73484858      -8.35765007     -10.53812678
C       -6.19357172      -7.60034490      -9.48390741
C       -6.49786759      -7.42047231      -8.11367049
S       -1.37563043      -2.20285697      -3.37336407
H       -3.41171609      -2.15478459      -0.38734607
H       -4.52388765      -3.61307991      -2.30793244
H       -2.36526632      -3.67426489      -5.63129706
H       -3.73950908      -4.96369420      -6.90227342
H       -3.62451342      -6.02883150     -11.13717958
H       -4.58880158      -7.36901645     -13.01473636
H       -7.59475517      -8.99910590     -10.37065486
H       -7.29594310      -7.88030443      -7.54546231
C       -1.78180981       1.78180981       1.78180981
C       -1.42393265       2.19088617       3.04117119
C       -2.44436965       2.99883368       3.62568307
C       -3.52753919       3.16967558       2.78250990
C       -4.74010615       3.91573814       3.01554895
N       -4.92513101       4.48969862       4.15989196
N       -6.08168001       5.19447865       4.32003082
C       -6.36282099       5.78458566       5.54674746
O       -5.63867562       5.68476952       6.53511735
C       -7.60101658       6.53569400       5.56956390
O       -8.34898653       6.67164779       4.42768336
C       -9.43129819       7.43656727       4.74896629
C      -10.44077035       7.82570475       3.87076607
C      -11.46608247       8.61646265       4.40572544
C      -11.45986137       8.98292249       5.75402365
Br     -12.86696771      10.05194469       6.43362467
C      -10.43394305       8.57912427       6.61755812
C       -9.39555182       7.78817158       6.09410064
C       -8.21548293       7.20403901       6.61248845
S       -3.30286736       2.35271915       1.29626496
H       -0.49119376       1.93402476       3.52862824
H       -2.39037771       3.43781743       4.61670486
H       -5.48885016       3.97707908       2.20489903
H       -6.73712539       5.31476655       3.55358476
H      -10.42943181       7.53336456       2.82772814
H      -12.27333763       8.94508484       3.75413192
H      -10.43238784       8.86787369       7.66425440
H       -7.83802011       7.25838388       7.62530585
C        1.78180981      -1.78180981       1.78180981
C        3.06330065      -2.14186554       1.45082382
C        3.63839269      -2.97067963       2.45981407
C        2.76958908      -3.19829746       3.51183813
C        2.98803882      -3.97667791       4.70667651
N        4.10590240      -4.60929497       4.85952422
N        4.26486638      -5.31667756       6.01464554
C        5.42084254      -6.06348717       6.20982440
O        6.31995677      -6.16138796       5.37721775
C        5.48060420      -6.73275535       7.49291493
O        4.48340196      -6.54822131       8.41669441
C        4.82038154      -7.27836994       9.51808026
C        4.08127836      -7.35938308      10.69657973
C        4.60832131      -8.16767723      11.71227202
C        5.81333935      -8.85152779      11.53194036
Br       6.48714097      -9.93339669      12.93199941
C        6.53836583      -8.75454909      10.33771052
C        6.02389740      -7.94368406       9.31024257
C        6.43980124      -7.58657150       8.00563766
S        1.26968119      -2.41160686       3.27056342
H        3.57161222      -1.83880768       0.54342684
H        4.64214909      -3.38145400       2.42129691
H        2.18732313      -4.01601278       5.46749236
H        3.56246008      -5.29510617       6.74791046
H        3.14908836      -6.82149526      10.81994088
H        4.06469402      -8.25713528      12.65072510
H        7.47531272      -9.28641268      10.20279053
H        7.33512928      -7.90117592       7.48540464
C       -0.00445707       0.01189536      -1.78238275
H       -0.66409135       0.67374010      -2.43557963
H        0.65740317      -0.63156657      -2.45157240
C       -0.90989263      -0.90692880      -0.91072765
C        0.90977584       0.90977584      -0.90977584
C       -0.00465871       1.77757030       0.00794375
H       -0.66225468       2.44313916      -0.64384735
H        0.64322798       2.43503045       0.67728295
C       -1.78241447       0.00034974      -0.00472694
H       -2.45427497      -0.65498947       0.64260836
H       -2.43311707       0.67328779      -0.65473579
C       -0.91132561       0.90220522       0.91563759
C       -0.01476271      -0.02253852       1.78660255
H       -0.67934791      -0.69751639       2.42135241
H        0.63392994       0.61504881       2.47327442
C        0.01484550      -1.77751727      -0.01636693
H        0.67870853      -2.42144646      -0.68295456
H       -0.62264859      -2.45592969       0.64226336
C        1.78714474       0.01002794       0.00389507
H        2.44202412       0.67113390       0.66197326
H        2.45385902      -0.65136977      -0.64189061
C        0.91606151      -0.90478549       0.90901405
