121
Properties=species:S:1:pos:R:3 pbc="F F F"
C        0.00000000       0.00000000       0.00000000
C        0.87190579       0.87190579      -0.87190579
C        0.72521254       0.96882970      -2.23223569
C        1.68973062       1.86114083      -2.78830287
C        2.52114042       2.40375006      -1.82512212
C        3.60614282       3.33895352      -1.99658483
N        3.92796534       3.73030959      -3.18673459
N        4.95077388       4.62660738      -3.28909614
C        5.37974498       5.03961017      -4.54508689
O        4.91202197       4.61653280      -5.60029564
C        6.44363998       6.02184411      -4.51107832
O        6.89519418       6.51154983      -3.31186159
C        7.87052930       7.42167276      -3.59491761
C        8.58550318       8.16450432      -2.65752160
C        9.54713474       9.04998596      -3.16143778
C        9.76488538       9.16545756      -4.53675248
C        9.03353350       8.40758514      -5.45979473
C        8.06181840       7.51711660      -4.96917696
C        7.14013004       6.61327862      -5.54888967
S        2.13068088       1.83006446      -0.26139406
H       -0.02248652       0.43775633      -2.80886486
H        1.77265516       2.09852163      -3.84401113
H        4.14215500       3.69926140      -1.09969980
H        5.39624366       5.01594777      -2.46357320
H        8.40307237       8.06322399      -1.59451606
H       10.12665679       9.65192309      -2.46426244
H        9.20497817       8.50202352      -6.52780216
H        6.98394500       6.40809803      -6.59995474
C       10.76191919      10.08512319      -5.02021782
C       11.59693499      10.85534316      -5.42512003
Br      12.94708493      12.10072370      -6.07981267
C       -0.87190579      -0.87190579      -0.87190579
C       -2.06855568      -1.39947340      -0.45824885
C       -2.66591286      -2.18315014      -1.49011132
C       -1.89829322      -2.21123617      -2.64048320
C       -2.16792215      -2.88816340      -3.88559563
N       -3.22853919      -3.62032130      -3.99614904
N       -3.44195225      -4.22444150      -5.20008366
C       -4.53370198      -5.06956399      -5.36117608
O       -5.32328704      -5.34534512      -4.46021825
C       -4.66658412      -5.61270684      -6.69727144
O       -3.79832204      -5.23166769      -7.68861587
C       -4.17978768      -5.88287395      -8.82445803
C       -3.56852997      -5.76763248     -10.07136664
C       -4.12108618      -6.52514175     -11.11233056
C       -5.22677195      -7.35000969     -10.89031380
C       -5.82395821      -7.44946751      -9.62748765
C       -5.28281565      -6.69193017      -8.57336614
C       -5.58765008      -6.51129959      -7.20334865
S       -0.46519691      -1.29385718      -2.46308531
H       -2.50261159      -1.24351165       0.52198857
H       -3.61457403      -2.70217288      -1.39844102
H       -1.45447699      -2.76583918      -4.72080003
H       -2.82872808      -4.05522175      -5.99181479
H       -2.71229832      -5.12232807     -10.22618604
H       -3.67634339      -6.46292639     -12.10357254
H       -6.68423079      -8.09045827      -9.46011479
H       -6.38619071      -6.97051325      -6.63529380
C       -5.76882738      -8.11552420     -11.98290862
C       -6.22279880      -8.75664260     -12.89795678
Br      -6.95683220      -9.79327684     -14.37751226
C       -0.87190579       0.87190579       0.87190579
C       -0.52723683       1.25639442       2.14264668
C       -1.54420048       2.07097086       2.72400298
C       -2.61161899       2.27109967       1.86729393
C       -3.81621585       3.03205496       2.09341036
N       -4.01007190       3.59144571       3.24349192
N       -5.15816966       4.31136987       3.39693788
C       -5.44913827       4.88713307       4.62817070
O       -4.74181398       4.76132412       5.62571231
C       -6.67605997       5.65669879       4.64380364
O       -7.40430530       5.82131920       3.49298111
C       -8.47974472       6.59779892       3.80957603
C       -9.46965119       7.01557208       2.92230582
C      -10.49098889       7.81378553       3.45378407
C      -10.49990085       8.15971430       4.80748028
C       -9.49354855       7.72725313       5.68011168
C       -8.45931398       6.92847088       5.16032710
C       -7.29627928       6.31856428       5.68745476
S       -2.37655317       1.47332220       0.37226402
H        0.39393888       0.97794049       2.64013307
H       -1.49878267       2.49406734       3.72233792
H       -4.55143741       3.11709212       1.27258667
H       -5.79990188       4.45324333       2.62261942
H       -9.44674307       6.73886916       1.87520020
H      -11.28311135       8.16453803       2.79519295
H       -9.50367617       8.00011328       6.73101440
H       -6.93360512       6.35182463       6.70656802
C      -11.56551031       8.98119564       5.32055425
C      -12.45795823       9.66918625       5.75025370
Br     -13.90097104      10.78160889       6.44504137
C        0.87190579      -0.87190579       0.87190579
C        2.15866210      -1.21950532       0.54811052
C        2.73238207      -2.05167088       1.55512137
C        1.85729663      -2.29412695       2.59858901
C        2.07257340      -3.08004977       3.78905801
N        3.19410187      -3.70520824       3.94569941
N        3.34965135      -4.42028727       5.09653879
C        4.50985022      -5.15966648       5.29492534
O        5.41608082      -5.24417868       4.46859091
C        4.56492230      -5.83839008       6.57325002
O        3.55923539      -5.66871243       7.49065778
C        3.89338021      -6.40476862       8.58897084
C        3.14587616      -6.50061149       9.76104145
C        3.67133911      -7.31268027      10.77453911
C        4.88297959      -7.98581301      10.59830283
C        5.61640500      -7.87399187       9.41051650
C        5.10358655      -7.05916417       8.38536124
C        5.52673921      -6.68874833       7.08681078
S        0.35323204      -1.51715950       2.35174785
H        2.67157818      -0.90551142      -0.35295492
H        3.73956227      -2.45439365       1.52123201
H        1.26635301      -3.13145041       4.54331277
H        2.64147402      -4.40981461       5.82447600
H        2.20861858      -5.97089015       9.88130369
H        3.12121298      -7.41359999      11.70802935
H        6.55846144      -8.39756302       9.27877939
H        6.42846021      -6.99240407       6.57113349
C        5.39361061      -8.81292132      11.66072827
C        5.82126409      -9.50562452      12.55050957
Br       6.51274360     -10.62566703      13.98921068
