125
Properties=species:S:1:pos:R:3 pbc="F F F"
C        0.00000000       0.00000000       0.00000000
C        0.88239867       0.88239867      -0.88239867
C        0.31120460       1.59066860      -1.93953076
C        1.11751894       2.39681147      -2.74724129
C        2.49089312       2.50166584      -2.48758683
C        3.05755121       1.77979712      -1.42702652
C        2.25014409       0.96861304      -0.62500237
C        3.30253170       3.38738844      -3.35568460
O        2.99754886       3.68978357      -4.49856780
O        4.35319557       3.87909366      -2.64804046
C        5.19659303       4.76382549      -3.38528822
C        6.22251346       4.01069448      -4.22826364
O        6.31794170       2.78371265      -4.20244884
C        7.16582169       4.80101303      -5.07619789
C        7.17263779       6.20257873      -5.09351573
C        8.10040004       6.89191156      -5.88258226
C        9.01946986       6.18529632      -6.65510597
C        9.01964151       4.79274416      -6.65249601
C        8.09402242       4.10245293      -5.86469251
H       -0.75339087       1.52388465      -2.14293632
H        0.67351381       2.94717478      -3.57288614
H        4.12497559       1.83501958      -1.22855840
H        2.69760260       0.41033537       0.19305676
H        5.73576868       5.36505598      -2.64649773
H        4.60152600       5.43791260      -4.01391084
H        6.47533013       6.78868673      -4.50200628
H        8.09921738       7.98021496      -5.88503528
H        9.73237231       4.23387408      -7.25275359
H        8.10383726       3.01407737      -5.86596663
C        9.97802300       6.89926641      -7.45823896
C       10.78081125       7.49721635      -8.13086283
Br      12.07885196       8.46405085      -9.21843875
C       -0.88239867      -0.88239867      -0.88239867
C       -0.59249559      -2.24093640      -1.00797197
C       -1.39823495      -3.04803083      -1.81530591
C       -2.49892461      -2.49619264      -2.48502854
C       -2.77809205      -1.12758370      -2.35869909
C       -1.96646337      -0.32103612      -1.55626002
C       -3.33943885      -3.39523091      -3.31093498
O       -2.94338615      -4.44053200      -3.80198207
O       -4.61564176      -2.92925374      -3.33543418
C       -5.52096071      -3.73285089      -4.09189514
C       -5.46312815      -3.41457595      -5.58376748
O       -4.74807080      -2.52031908      -6.03571330
C       -6.33974399      -4.19104875      -6.51223987
C       -7.24044391      -5.16617055      -6.06211779
C       -8.06095968      -5.84032158      -6.97361261
C       -7.98283840      -5.54434672      -8.33268703
C       -7.08786034      -4.58257637      -8.79444497
C       -6.26778511      -3.90786400      -7.88551875
H        0.25210586      -2.68006738      -0.48546857
H       -1.17145979      -4.10643941      -1.91567553
H       -3.61556193      -0.68271742      -2.89027422
H       -2.18800267       0.73909734      -1.46597587
H       -6.52537446      -3.49256690      -3.72938102
H       -5.33521595      -4.80006573      -3.91806776
H       -7.33367302      -5.42172784      -5.01062229
H       -8.75954000      -6.59257646      -6.61235116
H       -7.01987744      -4.34629272      -9.85282982
H       -5.57386903      -3.15508458      -8.25492765
C       -8.83575178      -6.23428582      -9.26549076
C       -9.55006673      -6.81210982     -10.04671389
Br     -10.70505360      -7.74640235     -11.30988562
C       -0.88239867       0.88239867       0.88239867
C       -1.92383036       0.30717842       1.61039519
C       -2.73154275       1.11347379       2.41655515
C       -2.48745715       2.49106483       2.50162381
C       -1.44270658       3.06162487       1.76004340
C       -0.64072728       2.25410651       0.94892571
C       -3.35465142       3.30292732       3.38802600
O       -4.48998169       2.98787866       3.70803988
O       -2.65402105       4.36800027       3.85830836
C       -3.39078506       5.21318589       4.74173579
C       -4.25528374       6.21955766       3.98663018
O       -4.24546551       6.30027677       2.75836090
C       -5.10508067       7.16214710       4.77580484
C       -5.10554423       7.18589518       6.17729283
C       -5.89751220       8.11241712       6.86496455
C       -6.68970068       9.01337426       6.15679722
C       -6.70391937       8.99654542       4.76441689
C       -5.91325204       8.07213935       4.07577647
H       -2.11499197      -0.76053425       1.55897239
H       -3.54498502       0.66628942       2.98230030
H       -1.25665598       4.13196497       1.79993261
H        0.16499252       2.70455530       0.37531843
H       -2.65143365       5.76856215       5.32732659
H       -4.00389165       4.61885579       5.43060199
H       -4.49851167       6.50300635       6.76450513
H       -5.88680045       8.12451579       7.95315138
H       -7.31955829       9.69508256       4.20435912
H       -5.92779682       8.06862567       2.98745877
C       -7.49581193       9.97081389       6.86890255
C       -8.17093010      10.77266959       7.46529076
Br      -9.26253908      12.06920243       8.42960006
C        0.88239867      -0.88239867       0.88239867
C        1.69984242      -1.84739113       0.29417041
C        2.50608485      -2.65510643       1.10038041
C        2.50138141      -2.48689090       2.49187347
C        1.67045977      -1.51906354       3.07485154
C        0.85967417      -0.71726357       2.26682176
C        3.39074992      -3.34983110       3.30502372
O        3.79270848      -4.44580695       2.94738480
O        3.76070548      -2.68735367       4.43227053
C        4.63773487      -3.42236987       5.28560200
C        3.88001316      -4.38369445       6.19776397
O        2.65066187      -4.44578213       6.20765919
C        4.66430352      -5.24217994       7.13654915
C        6.06006591      -5.16733768       7.24132865
C        6.74070722      -5.97280131       8.16138533
C        6.03135612      -6.85337487       8.97514116
C        4.64514384      -6.94275499       8.87698286
C        3.96349644      -6.13876335       7.95890808
H        1.71806677      -1.97894885      -0.78358553
H        3.14158926      -3.40912310       0.64286237
H        1.64089060      -1.39338372       4.15427925
H        0.21660105       0.02843604       2.72671619
H        5.14827778      -2.68547923       5.91356537
H        5.39242242      -3.96143286       4.69949416
H        6.64763390      -4.49057349       6.62781576
H        7.82415438      -5.90328640       8.23702684
H        4.08428616      -7.62751838       9.50719543
H        2.87967102      -6.21260326       7.89160699
C        6.73548057      -7.67338984       9.92665795
C        7.32518479      -8.36015238      10.72355327
Br       8.27868665      -9.47058933      12.01206559
