138
Properties=species:S:1:pos:R:3 pbc="F F F"
C        1.79230270       1.79230270      -1.79230270
C        1.22110862       2.50057263      -2.84943478
C        2.02742296       3.30671549      -3.65714531
C        3.40079714       3.41156987      -3.39749085
C        3.96745523       2.68970115      -2.33693054
C        3.16004811       1.87851706      -1.53490640
C        4.21243572       4.29729246      -4.26558862
O        3.90745289       4.59968759      -5.40847182
O        5.26309959       4.78899768      -3.55794448
C        6.10649705       5.67372952      -4.29519224
C        7.13241748       4.92059851      -5.13816766
O        7.22784572       3.69361667      -5.11235287
C        8.07572571       5.71091706      -5.98610191
C        8.08254181       7.11248275      -6.00341975
C        9.01030407       7.80181559      -6.79248628
C        9.92937389       7.09520034      -7.56501000
Br      11.18728695       8.03214610      -8.61896458
C        9.92954554       5.70264819      -7.56240003
C        9.00392644       5.01235696      -6.77459653
H        0.15651316       2.43378867      -3.05284034
H        1.58341784       3.85707881      -4.48279017
H        5.03487961       2.74492360      -2.13846242
H        3.60750662       1.32023939      -0.71684726
H        6.64567270       6.27496000      -3.55640175
H        5.51143002       6.34781663      -4.92381486
H        7.38523416       7.69859076      -5.41191031
H        9.00912141       8.89011899      -6.79493930
H       10.64227633       5.14377810      -8.16265762
H        9.01374129       3.92398140      -6.77587065
C       -1.79230270      -1.79230270      -1.79230270
C       -1.20719555      -2.78222422      -2.58169627
C       -2.01324436      -3.58865208      -3.38938732
C       -3.40349832      -3.41053956      -3.39581998
C       -3.98207427      -2.40755142      -2.60446123
C       -3.17302054      -1.59757294      -1.80287809
C       -4.22059601      -4.30500890      -4.24971189
O       -3.79723201      -4.87602264      -5.24235765
O       -5.45073734      -4.46437499      -3.69492943
C       -6.31997894      -5.32646927      -4.42897060
C       -7.02054943      -4.59776136      -5.57287286
O       -6.87169552      -3.39188130      -5.77023844
C       -7.94906976      -5.37425903      -6.44941590
C       -8.23297086      -6.73010447      -6.23536899
C       -9.13604011      -7.39988531      -7.06868052
C       -9.75439090      -6.71971143      -8.11548190
Br     -10.98191992      -7.62688838      -9.22958934
C       -9.47660388      -5.37435341      -8.34363647
C       -8.57520354      -4.70354456      -7.51213184
H       -0.13206053      -2.93471587      -2.57636578
H       -1.55773827      -4.35873868      -4.00680986
H       -5.05681219      -2.24441317      -2.61704028
H       -3.62902308      -0.82078782      -1.19478237
H       -7.08322246      -5.67009400      -3.72371799
H       -5.77595550      -6.20167058      -4.80543542
H       -7.77470802      -7.29336006      -5.42766714
H       -9.35205442      -8.45156196      -6.89056331
H       -9.95375730      -4.83659625      -9.15835850
H       -8.36689372      -3.65111361      -7.69558600
C       -1.79230270       1.79230270       1.79230270
C       -3.16175011       1.53930979       1.87005614
C       -3.96920047       2.34625338       2.67582991
C       -3.40242140       3.39639431       3.41104214
C       -2.02562415       3.64785863       3.32060413
C       -1.22130020       2.84375305       2.50841833
C       -4.29371764       4.21071529       4.27088388
O       -5.49360390       4.33766296       4.08434543
O       -3.59119989       4.68664219       5.33219968
C       -4.36000406       5.47424780       6.24116695
C       -4.48729767       6.92388523       5.78000076
O       -3.92750632       7.34040848       4.76590046
C       -5.28445593       7.87048517       6.61780359
C       -5.88083158       7.48979198       7.82782075
C       -6.58942110       8.42682179       8.58836305
C       -6.70517037       9.74166635       8.14274750
Br      -7.65312150      11.00487591       9.18040023
C       -6.12330179      10.13199113       6.93930084
C       -5.41480348       9.19760962       6.17846684
H       -3.60897376       0.72208787       1.31208054
H       -5.03700749       2.15127548       2.73500385
H       -1.57706371       4.47283025       3.86837168
H       -0.15578901       3.04709814       2.44170613
H       -3.81984648       5.46411402       7.19307396
H       -5.35136607       5.03187386       6.39982158
H       -5.80915814       6.47591755       8.21065954
H       -7.04481338       8.12104155       9.52832476
H       -6.20954313      11.15519107       6.58397785
H       -4.96017896       9.51242626       5.24098812
C        1.79230270      -1.79230270       1.79230270
C        3.13859173      -1.46991005       1.96261426
C        3.94610430      -2.27675851       2.76842096
C        3.40160355      -3.39691069       3.41134362
C        2.04859144      -3.71744860       3.22804687
C        1.24470884      -2.91288876       2.41587397
C        4.29017431      -4.20965994       4.27548256
O        5.50377036      -4.26000828       4.15183366
O        3.55945134      -4.78362668       5.26696373
C        4.32169629      -5.57925926       6.17446327
C        4.55737090      -6.99077354       5.64303922
O        4.07868136      -7.37800524       4.57712866
C        5.36093419      -7.93924667       6.47256383
C        5.86747517      -7.59703965       7.73392950
C        6.58641061      -8.53634571       8.48184962
C        6.80195276      -9.81501929       7.97261217
Br       7.76319986     -11.08240889       8.99278888
C        6.31007039     -10.16641542       6.71810795
C        5.59139457      -9.22972749       5.96975787
H        3.56768625      -0.59868695       1.47676898
H        4.99606525      -2.02757608       2.89964548
H        1.61916816      -4.59588092       3.70321656
H        0.19793030      -3.16985187       2.27681111
H        3.73074585      -5.65353298       7.09275562
H        5.27575544      -5.09336990       6.41393617
H        5.71665692      -6.61236082       8.16671748
H        6.97146280      -8.26092377       9.46179312
H        6.47444797     -11.16118329       6.31308078
H        5.20749363      -9.51425869       4.99184102
C       -0.00445707       0.01189536      -1.78238275
H       -0.66409135       0.67374010      -2.43557963
H        0.65740317      -0.63156657      -2.45157240
C       -0.90989263      -0.90692880      -0.91072765
C        0.90977584       0.90977584      -0.90977584
C       -0.00465871       1.77757030       0.00794375
H       -0.66225468       2.44313916      -0.64384735
H        0.64322798       2.43503045       0.67728295
C       -1.78241447       0.00034974      -0.00472694
H       -2.45427497      -0.65498947       0.64260836
H       -2.43311707       0.67328779      -0.65473579
C       -0.91132561       0.90220522       0.91563759
C       -0.01476271      -0.02253852       1.78660255
H       -0.67934791      -0.69751639       2.42135241
H        0.63392994       0.61504881       2.47327442
C        0.01484550      -1.77751727      -0.01636693
H        0.67870853      -2.42144646      -0.68295456
H       -0.62264859      -2.45592969       0.64226336
C        1.78714474       0.01002794       0.00389507
H        2.44202412       0.67113390       0.66197326
H        2.45385902      -0.65136977      -0.64189061
C        0.91606151      -0.90478549       0.90901405
