181
Properties=species:S:1:pos:R:3 pbc="F F F"
C        0.00000000       0.00000000       0.00000000
C        2.74881001       4.12290528      -4.25363784
O        3.33419867       3.22928519      -3.31364350
C        2.48327733       2.48790546      -2.53591799
C        1.11313044       2.74457730      -2.40609289
C        0.31384920       1.94028952      -1.58662049
C        0.88175646       0.88175646      -0.88175646
C        2.24272806       0.61897931      -0.98325107
C        3.04157927       1.41933606      -1.81167217
C        4.47666555       1.09349637      -1.95249018
N        5.04565324       0.19058473      -1.20931774
N        6.35334017      -0.04598595      -1.51466352
C        7.04116497      -1.07263585      -0.87762160
O        6.59606559      -1.78402095       0.02051963
C        8.46541513      -1.22133720      -1.38487523
S        8.62302976      -2.60022731      -2.55242699
C        7.75556349      -1.99990318      -3.92082025
N        7.21478590      -0.81224108      -4.03538702
N        6.51730838      -0.79150293      -5.21347859
C        6.65017508      -1.96637845      -5.81521602
C        6.00033753      -2.32810800      -7.08289666
C        5.65578737      -1.30488809      -7.98189368
C        5.03526715      -1.58995018      -9.20223314
C        4.74797436      -2.90783552      -9.54467872
C        5.06105586      -3.92877781      -8.65250084
Br       4.66707530      -5.72199646      -9.10791968
C        5.66522498      -3.64637856      -7.42344489
N        7.52312619      -2.72580093      -5.05770944
C        8.14856648      -3.97318922      -5.41756508
H        3.55461340       4.53375689      -4.86916548
H        2.25807348       4.95990050      -3.74719832
H        2.05482092       3.59953654      -4.91928845
H        0.63292156       3.56800185      -2.92642364
H       -0.74969999       2.14891724      -1.50567641
H        2.68471735      -0.21126378      -0.43576796
H        5.04899117       1.64154185      -2.72119719
H        6.68858698       0.25629306      -2.43175947
H        9.10718525      -1.41955706      -0.51899566
H        8.82537046      -0.29197121      -1.83713072
H        5.86888557      -0.26635068      -7.73068962
H        4.77716916      -0.78029422      -9.88116211
H        4.27278980      -3.12584026     -10.49720109
H        5.84941347      -4.46497265      -6.73539422
H        9.15107570      -4.02627409      -4.98586274
H        8.25726485      -4.03086724      -6.50330043
H        7.53153827      -4.79275301      -5.04230894
C       -4.66753881      -3.15771074      -3.30010359
O       -3.25906581      -3.35655740      -3.26150416
C       -2.52572611      -2.51167237      -2.46970230
C       -3.01775090      -1.31822411      -1.92782563
C       -2.20035257      -0.50909970      -1.13130695
C       -0.88175646      -0.88175646      -0.88175646
C       -0.36780986      -2.05415471      -1.42299387
C       -1.18988443      -2.86931125      -2.21339182
C       -0.64582703      -4.14056374      -2.73626133
N        0.61371567      -4.44179945      -2.61747193
N        0.94128950      -5.68116290      -3.08214435
C        2.22937355      -6.17270781      -2.90281646
O        3.16841125      -5.55669108      -2.40324519
C        2.39212096      -7.58641244      -3.43466168
S        2.34316516      -8.81602725      -2.10236735
C        0.68569720      -8.74224492      -1.61993285
N       -0.25090139      -8.01297351      -2.17405693
N       -1.38010645      -8.14771235      -1.41146524
C       -1.12494342      -8.97108209      -0.40298714
C       -2.08924887      -9.31680697       0.65092966
C       -3.46218806      -9.23481954       0.36421464
C       -4.42471378      -9.55096507       1.32812873
C       -4.02848281      -9.95563325       2.59929850
C       -2.67220360     -10.01695002       2.90437473
Br      -2.12608280     -10.55926734       4.63235161
C       -1.70687603      -9.68434903       1.94893376
N        0.16255235      -9.44756558      -0.57002147
C        0.80165557     -10.52969500       0.13509710
H       -5.10510105      -3.98356797      -3.86886674
H       -4.91898592      -2.22735557      -3.81883081
H       -5.09895743      -3.18055826      -2.29413023
H       -4.03478168      -0.98337119      -2.10919418
H       -2.60261119       0.40907500      -0.71135746
H        0.66123496      -2.34688735      -1.22356914
H       -1.35291694      -4.83229695      -3.22651632
H        0.18462325      -6.35755521      -3.20370754
H        3.36787840      -7.64442179      -3.93008045
H        1.63895775      -7.81407800      -4.19540972
H       -3.79285619      -8.91646265      -0.62390567
H       -5.48184728      -9.47866862       1.08247885
H       -4.77935574     -10.20786404       3.34306915
H       -0.66174147      -9.69845515       2.24036158
H        1.48356986     -11.06009078      -0.53414343
H        0.04836285     -11.24725512       0.46919422
H        1.35082055     -10.11567718       0.98376243
C       -4.52760814       2.86104585       3.73669914
O       -3.28736776       3.35030665       3.23945295
C       -2.53413899       2.49609923       2.47686256
C       -2.75941335       1.11724491       2.38714238
C       -1.93977806       0.31370736       1.58727380
C       -0.88175646       0.88175646       0.88175646
C       -0.63004253       2.24579622       0.96911969
C       -1.45717809       3.05207396       1.76333545
C       -1.21088083       4.50921967       1.80255159
N       -0.15721246       5.03639815       1.25194511
N       -0.11553938       6.39813583       1.30834254
C        0.89472937       7.09050360       0.65037649
O        1.83679565       6.58142963       0.04689102
C        0.74684729       8.59700494       0.77879551
S        0.03856973       9.33345170      -0.71965252
C       -1.58678500       8.75025613      -0.66056057
N       -2.11625571       8.02694299       0.29473314
N       -3.37569798       7.67299404      -0.10940797
C       -3.60872939       8.19631415      -1.30603089
C       -4.84287131       7.98905804      -2.07680317
C       -6.02902302       7.68969359      -1.38592364
C       -7.23256322       7.48200596      -2.06701906
C       -7.26966305       7.57048985      -3.45533535
C       -6.09698333       7.84149015      -4.15369459
Br      -6.13815142       7.95623823      -6.04139112
C       -4.88787360       8.03202058      -3.47760288
N       -2.51682731       8.97705903      -1.63885163
C       -2.40187432       9.91655647      -2.72548845
H       -5.05063116       3.69795762       4.20894699
H       -4.36936673       2.09430134       4.50150423
H       -5.16067137       2.48776888       2.92520565
H       -3.56392312       0.63179041       2.93163351
H       -2.13580321      -0.75333689       1.52242734
H        0.19403430       2.68949558       0.41376025
H       -1.96208359       5.13788669       2.31175993
H       -0.99096669       6.89233328       1.49333953
H        1.74682636       9.01642398       0.93702622
H        0.15088813       8.86449689       1.65692121
H       -6.02010535       7.61230213      -0.29918296
H       -8.13757725       7.25035353      -1.50989373
H       -8.20837442       7.41609621      -3.98032000
H       -3.98705349       8.19340542      -4.06062387
H       -1.77550428      10.76007708      -2.42491701
H       -3.38860030      10.31489835      -2.97380060
H       -1.95990824       9.40424704      -3.58306108
C        2.91883677      -4.58005783       3.62645853
O        3.29379816      -3.23608197       3.34724723
C        2.47002368      -2.51047343       2.52660367
C        1.45848993      -3.06911937       1.73619133
C        0.66286400      -2.25666448       0.92123073
C        0.88175646      -0.88175646       0.88175646
C        1.89103918      -0.30807332       1.64584594
C        2.68196172      -1.12127285       2.46935292
C        3.71483471      -0.48991557       3.31790183
N        4.01456689       0.77017776       3.20116659
N        4.93096859       1.21602739       4.10707655
C        5.24600592       2.56875245       4.16889725
O        4.81487239       3.44008180       3.41673442
C        6.24148292       2.88466414       5.27213439
S        5.42639350       3.58452463       6.73336058
C        4.55790375       2.21809625       7.33667307
N        4.59067560       1.00242043       6.84967666
N        3.66555631       0.26135905       7.53508679
C        3.08409307       1.03100325       8.44592283
C        2.00430231       0.58875342       9.33957730
C        1.90292124      -0.77708339       9.65278833
C        0.89565779      -1.25494723      10.49694509
C       -0.03021151      -0.37144376      11.04358532
C        0.04348976       0.98029997      10.72158910
Br      -1.21586076       2.18623172      11.45509100
C        1.03823378       1.45952420       9.86358172
N        3.70936420       2.26400967       8.40968017
C        3.58415196       3.34526833       9.35405870
H        3.60536210      -4.96659363       4.38558004
H        3.01955804      -5.20910813       2.73650613
H        1.90510274      -4.63185717       4.03668600
H        1.26372737      -4.13745437       1.72616530
H       -0.12393106      -2.70703726       0.32178745
H        2.05824571       0.76694196       1.61791779
H        4.21935182      -1.12844276       4.06393562
H        5.08253488       0.65156413       4.94566875
H        6.95013563       3.62214148       4.87862970
H        6.82630741       2.00070138       5.54492394
H        2.61583042      -1.48542416       9.23196993
H        0.83720015      -2.31714881      10.72368809
H       -0.80666232      -0.74559055      11.70522240
H        1.03267122       2.51186187       9.59902569
H        4.53689688       3.87250894       9.44627641
H        3.33534271       2.94588163      10.34023696
H        2.80732916       4.02730059       9.00106563
