173
Properties=species:S:1:pos:R:3 pbc="F F F"
C        0.00000000       0.00000000       0.00000000
O        5.13553242       2.49964731      -6.85671065
C        4.77530418       1.32600928      -6.92965551
N        3.95631392       0.67630113      -6.01533618
N        3.54061197       1.32034508      -4.88802351
C        2.75662499       0.62911652      -4.12362104
C        2.21307228       1.18085791      -2.86676355
C        2.48947326       2.49769124      -2.48411424
C        1.95472118       3.00471518      -1.29899975
C        1.14782463       2.19651603      -0.49637162
C        0.88229238       0.88229238      -0.88229238
C        1.41041543       0.36529078      -2.06491654
C        5.24854115       0.41386181      -8.04654456
S        4.27298409       0.63709240      -9.55528798
C        2.79817109      -0.16052580      -9.13948733
N        2.54433399      -0.77068365      -8.00685146
N        1.25688095      -1.23689905      -8.06973390
C        0.75381082      -0.94640763      -9.26043397
C       -0.60626272      -1.27667268      -9.69852720
C       -1.66416669      -1.16172213      -8.78272202
C       -2.97718277      -1.46048945      -9.15793418
C       -3.25045243      -1.88369368     -10.45645334
C       -2.20525747      -2.02109417     -11.36606117
C       -0.88985264      -1.73336104     -10.99280531
N        1.71184396      -0.24270317      -9.96785679
C        1.57423942       0.32527360     -11.28550224
H        3.48859173      -0.18707307      -6.29696031
H        2.46765201      -0.40767831      -4.37589699
H        3.11756996       3.13239472      -3.10755375
H        2.16631053       4.02982945      -1.00409859
H        0.73287997       2.60015345       0.42376447
H        1.19768130      -0.65937073      -2.35595949
H        5.24583771      -0.63429224      -7.72921058
H        6.29094017       0.67144143      -8.26324623
H       -1.46737580      -0.83411490      -7.76234072
H       -3.78380301      -1.36356803      -8.43505574
H       -4.27365023      -2.11139686     -10.74439827
H       -0.09240327      -1.88660189     -11.71356288
H        2.25993485       1.16358012     -11.41973615
H        0.55646613       0.69908142     -11.41798281
H        1.79906496      -0.45444740     -12.01801304
C       -2.48208473      -2.46459954     -12.70780245
C       -2.71392755      -2.83603529     -13.83151076
Br      -3.08879780      -3.43661548     -15.64845208
O       -7.11974743      -2.74496533      -4.62717763
C       -7.30882049      -1.67963283      -4.04251566
N       -6.37218147      -1.00910851      -3.26666125
N       -5.14611656      -1.56105240      -3.04181159
C       -4.34385633      -0.83451627      -2.33098995
C       -2.97702089      -1.28368807      -1.99998478
C       -2.48329161      -2.49692402      -2.49106310
C       -1.18354989      -2.89704228      -2.17784395
C       -0.37983214      -2.08782692      -1.37305321
C       -0.88229238      -0.88229238      -0.88229238
C       -2.17918137      -0.47185847      -1.18958292
C       -8.65708191      -0.98327196      -4.06859365
S       -8.88040222      -0.00766848      -5.57729377
C       -7.86134753       1.35256718      -5.26835227
N       -7.16087515       1.55967306      -4.17929970
N       -6.46861404       2.73016382      -4.35126558
C       -6.79083299       3.24965065      -5.52665482
C       -6.24457174       4.49796180      -6.06898186
C       -4.88774290       4.79432656      -5.86341686
C       -4.32300819       5.96972378      -6.36697756
C       -5.11056237       6.86947322      -7.08121806
C       -6.46211204       6.59470208      -7.27229957
C       -7.03342443       5.42602898      -6.76219618
N       -7.67232018       2.38360719      -6.14828458
C       -8.23587506       2.51892373      -7.46806392
H       -6.51808641      -0.01915747      -3.06123507
H       -4.65186848       0.15029689      -1.93429911
H       -3.10619425      -3.13112680      -3.12019737
H       -0.79864411      -3.83821485      -2.56337962
H        0.63245510      -2.40552069      -1.13620336
H       -2.56066552       0.46845417      -0.80205872
H       -8.79993698      -0.36430759      -3.17651148
H       -9.42960048      -1.75922738      -4.03679997
H       -4.25815095       4.10225444      -5.30495352
H       -3.26955523       6.18110862      -6.19923811
H       -4.66591603       7.78041865      -7.47385379
H       -8.09793161       5.25867598      -6.89530210
H       -8.51609928       1.54446113      -7.87161297
H       -7.49480065       2.95982623      -8.13855594
H       -9.12153493       3.15581213      -7.39690779
C       -7.28176806       7.52512384      -8.00447396
C       -7.96822999       8.30435207      -8.61767001
Br      -9.07818085       9.56429822      -9.60915616
O       -4.21489004       3.00979813       7.26720222
C       -3.58864233       1.97117821       7.47114843
N       -2.82597053       1.29218605       6.52979465
N       -2.78402988       1.72663839       5.23831228
C       -2.01764642       1.03579238       4.45592375
C       -1.85629930       1.37598439       3.02841005
C       -2.49234225       2.49610236       2.48283412
C       -2.31593595       2.80833893       1.13416124
C       -1.50795358       2.00117372       0.33158498
C       -0.88229238       0.88229238       0.88229238
C       -1.05053976       0.56117280       2.22891020
C       -3.62617221       1.26746123       8.81531408
S       -2.46629423       2.00601802       9.99305222
C       -0.95092044       1.42073375       9.40547843
N       -0.77778050       0.62529169       8.37742961
N        0.57105495       0.43168717       8.22908358
C        1.20522809       1.07457214       9.19849311
C        2.66163260       1.11014554       9.36707885
C        3.47747593       1.20579288       8.22851625
C        4.87009026       1.24840306       8.34194916
C        5.46777137       1.19136605       9.59871254
C        4.66806715       1.07518859      10.73258809
C        3.27605474       1.02203822      10.62360815
N        0.25911563       1.73218425       9.96392896
C        0.50392347       2.60187977      11.08705895
H       -2.12943237       0.61770063       6.85134595
H       -1.45770892       0.15584066       4.82232111
H       -3.12280985       3.12944868       3.10525990
H       -2.80710372       3.68165875       0.71147610
H       -1.37350438       2.25309045      -0.71732589
H       -0.55909347      -0.31238553       2.64756212
H       -3.44239677       0.19351626       8.70484302
H       -4.64144876       1.37083143       9.21334764
H        3.02610051       1.24919539       7.23775514
H        5.48548348       1.32456847       7.44859971
H        6.55100623       1.22844561       9.68191180
H        2.68191880       0.89324874      11.52322779
H       -0.31846795       3.30729911      11.21748406
H        1.41568378       3.17733653      10.91187760
H        0.60259277       1.98266445      11.98255892
C        5.28177031       1.00929083      12.03359767
C        5.79574672       0.95410146      13.12319318
Br       6.62680309       0.86486491      14.88497698
O        2.30395619      -6.26029030       5.92764389
C        1.08637186      -6.15264860       5.79194851
N        0.44667888      -5.27609499       4.92517735
N        1.17269226      -4.38926402       4.18702427
C        0.47489762      -3.64301641       3.39144852
C        1.10763609      -2.63392339       2.51913426
C        2.49830015      -2.48597346       2.48700512
C        3.07764920      -1.53552425       1.64526267
C        2.26877972      -0.73248055       0.83945201
C        0.88229238      -0.88229238       0.88229238
C        0.29238943      -1.82942457       1.71880875
C        0.11517251      -6.96529325       6.62848176
S       -0.12092695      -8.62979004       5.95650138
C       -1.12022368      -8.31414830       4.58320800
N       -1.57029237      -7.14017979       4.21061438
N       -2.29217248      -7.32218995       3.05969833
C       -2.31400758      -8.61425348       2.76759127
C       -2.98247213      -9.19802164       1.60004229
C       -2.93283260      -8.51550047       0.37416533
C       -3.55079789      -9.03711252      -0.76605266
C       -4.23250214     -10.24960232      -0.69479295
C       -4.30534014     -10.92371671       0.52133296
C       -3.69786194     -10.40134891       1.66610466
N       -1.55925122      -9.27885972       3.71738908
C       -1.26045883     -10.68842429       3.75704979
H       -0.52847468      -5.45083788       4.67611576
H       -0.62630099      -3.72421172       3.33795996
H        3.13355171      -3.11092002       3.11304670
H        4.15901089      -1.42382490       1.61740278
H        2.72826774       0.00347210       0.18447331
H       -0.78812057      -1.93768623       1.74470440
H       -0.84321763      -6.44666113       6.73731255
H        0.53907703      -7.05172023       7.63483057
H       -2.40556641      -7.56472783       0.30168860
H       -3.49987261      -8.49486055      -1.70730323
H       -4.70838209     -10.65282987      -1.58509660
H       -3.80462312     -10.93165087       2.60752997
H       -0.33499303     -10.87316150       4.30508265
H       -1.12889751     -11.06299143       2.73943643
H       -2.08987490     -11.19887815       4.25362735
C       -5.01460487     -12.17437285       0.60135020
C       -5.60861408     -13.22179737       0.66836463
Br      -6.56907674     -14.91539423       0.77672131
