198
Properties=species:S:1:pos:R:3 pbc="F F F"
O        4.57616349       7.48295332      -7.44826117
C        3.84909755       6.73866840      -6.78358483
N        4.41807705       5.77301518      -5.98876793
N        3.67856560       4.93097019      -5.22562720
C        4.25242345       4.32385407      -4.22713228
C        5.70441821       4.52528380      -3.84319592
C        3.41570092       3.41725435      -3.38192854
C        2.04931163       3.69981875      -3.24294870
C        1.23757884       2.88783631      -2.44820828
C        1.79164220       1.79164220      -1.79164220
C        3.14707299       1.49307754      -1.93243825
C        3.96012016       2.30254339      -2.73321849
C        2.33252706       6.84734827      -6.79624630
S        1.81237835       8.54394507      -6.38070566
C        2.27974637       8.63125993      -4.71701264
N        2.40880021       7.62124956      -3.89521548
N        2.81579493       8.12039651      -2.68465939
C        2.94362569       9.43317555      -2.78570174
C        3.37753109      10.31074380      -1.69351723
C        2.98766673      10.00301112      -0.37959195
C        3.38318469      10.80251644       0.69586085
C        4.17990777      11.92209047       0.47277687
C        4.59004213      12.22396884      -0.82418657
Br       5.68309052      13.73660354      -1.13059043
C        4.20602319      11.42104475      -1.90072601
N        2.55664951       9.80106815      -4.06123338
C        2.42027445      11.13680825      -4.58177884
H        5.42918751       5.77193964      -5.93874630
H        5.90489479       5.59560675      -3.73599597
H        6.34878290       4.11129933      -4.62447507
H        5.95763698       4.05698886      -2.89027915
H        1.61524554       4.56689213      -3.73819778
H        0.18253741       3.12595627      -2.34453864
H        3.57933147       0.63430400      -1.42449160
H        5.00727768       2.03849834      -2.84527210
H        1.83628193       6.14208987      -6.12724435
H        1.99574288       6.61874246      -7.81229838
H        2.36969178       9.12522001      -0.18827453
H        3.07080119      10.54652414       1.70523328
H        4.48370583      12.54261601       1.31190167
H        4.57473432      11.65902742      -2.89392025
H        1.62399361      11.17332151      -5.32906521
H        3.37255194      11.42919857      -5.03214960
H        2.14812293      11.82163425      -3.77492735
O       -8.37909756      -5.94088196      -5.18739846
C       -7.67087605      -5.26873621      -4.43173853
N       -6.31157449      -5.23823726      -4.63004841
N       -5.47839349      -4.51222458      -3.84454493
C       -4.29592426      -4.20988974      -4.29759579
C       -3.79903917      -4.59843614      -5.67542262
C       -3.39933688      -3.38841479      -3.42713213
C       -3.98087692      -2.47732897      -2.53387320
C       -3.17779968      -1.67915772      -1.71666602
C       -1.79164220      -1.79164220      -1.79164220
C       -1.20179925      -2.70349164      -2.66729790
C       -2.00561320      -3.50793167      -3.48233716
C       -8.24068746      -4.45441286      -3.28102130
S       -9.53397621      -3.32007513      -3.88297773
C       -8.58942056      -2.21603010      -4.82256828
N       -7.31922686      -1.94885645      -4.65718193
N       -6.95653887      -1.04338157      -5.62093038
C       -8.01063909      -0.77727601      -6.37458788
C       -8.00143126       0.13927052      -7.51963138
C       -7.19526677       1.28818579      -7.46318883
C       -7.14490907       2.18690566      -8.53183688
C       -7.89891941       1.94689152      -9.67719348
C       -8.68522575       0.79903238      -9.75200416
Br      -9.70133491       0.46213191     -11.31108149
C       -8.72982035      -0.10761636      -8.69035724
N       -9.08886013      -1.47204348      -5.85804742
C      -10.46285176      -1.39392083      -6.28208895
H       -5.96665166      -5.72571019      -5.44751161
H       -4.52940662      -4.28120192      -6.42588897
H       -3.67496739      -5.68430252      -5.72528739
H       -2.85131383      -4.12154082      -5.93205035
H       -5.06344011      -2.37142762      -2.48546771
H       -3.64454944      -0.97229162      -1.03619126
H       -0.11977437      -2.79576555      -2.72258714
H       -1.52514047      -4.22549619      -4.14041146
H       -7.48858283      -3.88682663      -2.73020669
H       -8.69461740      -5.15704747      -2.57511886
H       -6.59343831       1.48590325      -6.57565126
H       -6.51411382       3.07006837      -8.46804660
H       -7.85852823       2.64958911     -10.50548105
H       -9.32018025      -1.01295507      -8.79454666
H      -11.13162754      -1.56049877      -5.43425403
H      -10.63001328      -2.15549012      -7.04839671
H      -10.67143999      -0.39651723      -6.67672731
O       -8.41549124       5.34974376       5.74214297
C       -7.72338261       4.66596030       4.98200787
N       -6.37623148       4.91847089       4.88515779
N       -5.55774097       4.19849890       4.07892313
C       -4.27710401       4.21364226       4.31266352
C       -3.64111752       4.97096429       5.46081611
C       -3.39209574       3.39483076       3.42795730
C       -3.91164163       2.22502781       2.85540964
C       -3.11210630       1.42362044       2.03789668
C       -1.79164220       1.79164220       1.79164220
C       -1.26738167       2.95984857       2.34535854
C       -2.06935589       3.76668111       3.15984503
C       -8.29778613       3.53572758       4.14260791
S       -9.18992926       2.34824998       5.19884984
C       -7.87960491       1.65621623       6.09219780
N       -6.63105847       1.58739416       5.70681261
N       -5.91816676       0.98895074       6.71373333
C       -6.74082926       0.71020877       7.71146495
C       -6.33320474       0.07799154       8.97059583
C       -5.32135650      -0.89596692       8.94488023
C       -4.89148158      -1.52027269      10.11863139
C       -5.46597209      -1.17571982      11.33896909
C       -6.45528683      -0.19532745      11.37823816
Br      -7.22962955       0.28527602      13.03537892
C       -6.88010175       0.43911587      10.20857634
N       -8.01700116       1.07668929       7.32526059
C       -9.24540023       0.85127023       8.04219108
H       -6.00608636       5.62342228       5.51036482
H       -4.14236448       4.69936789       6.39476514
H       -3.74699169       6.04657406       5.29099154
H       -2.58293013       4.73484193       5.58713294
H       -4.93722675       1.92245403       3.06065467
H       -3.52793487       0.51599593       1.60910152
H       -0.23816832       3.25071991       2.14923884
H       -1.64658952       4.68217247       3.56228613
H       -7.55000742       3.00421002       3.55139872
H       -9.00928767       3.97880285       3.43869320
H       -4.85680400      -1.17114269       7.99752502
H       -4.10660554      -2.27138798      10.07687449
H       -5.13016098      -1.66524410      12.24950329
H       -7.62380590       1.22734469      10.27653139
H      -10.07281022       0.71107221       7.34249791
H       -9.43516738       1.71841739       8.68031534
H       -9.16156991      -0.05851473       8.64162935
O        5.01549240      -8.30658394       6.18530163
C        4.26291196      -7.59205956       5.51637927
N        4.55593839      -6.25810949       5.36581228
N        3.77851514      -5.42089995       4.63574791
C        4.29088283      -4.30227088       4.21025608
C        5.72708493      -3.88748020       4.45833280
C        3.42612375      -3.40229176       3.38646830
C        2.42491486      -3.97676974       2.59039449
C        1.60816995      -3.17223707       1.79321641
C        1.79164220      -1.79164220       1.79164220
C        2.77600694      -1.20748155       2.58910029
C        3.59103143      -2.01212491       3.39272570
C        3.01408930      -8.12782356       4.83420875
S        3.43080797      -9.54265325       3.76356786
C        4.34730388      -8.75642738       2.52428768
N        4.25381399      -7.49984356       2.17160769
N        5.16776031      -7.27972559       1.17336492
C        5.82025316      -8.40580727       0.93644256
C        6.88806484      -8.55209394      -0.05836665
C        6.80067154      -7.82911041      -1.25951214
C        7.79688256      -7.92723967      -2.23428195
C        8.89997466      -8.74888090      -2.01963419
C        9.00698465      -9.45362619      -0.82241331
Br      10.51006624     -10.56111741      -0.52089916
C        8.01876931      -9.34973906       0.15928558
N        5.28286470      -9.38747645       1.74860988
C        5.59914117     -10.79237323       1.74734714
H        5.43167761      -5.94361124       5.76458461
H        6.39581210      -4.69510768       4.14557773
H        5.87023896      -3.68953738       5.52478095
H        6.01357916      -2.99957413       3.89175170
H        2.29031186      -5.05708387       2.57293971
H        0.84274666      -3.63439828       1.17588737
H        2.91635402      -0.12922370       2.59254934
H        4.33600621      -1.53380004       4.02124187
H        2.47651203      -7.37807044       4.25103369
H        2.33413186      -8.47341346       5.61923840
H        5.94623850      -7.17582165      -1.43887384
H        7.71021840      -7.35885814      -3.15698449
H        9.67173933      -8.82402871      -2.78134788
H        8.15025339      -9.87945963       1.09796896
H        4.72076364     -11.37926620       2.02635050
H        6.40837077     -10.96326942       2.46225992
H        5.89875955     -11.10259623       0.74332875
C       -0.00445707       0.01189536      -1.78238275
H       -0.66409135       0.67374010      -2.43557963
H        0.65740317      -0.63156657      -2.45157240
C       -0.90989263      -0.90692880      -0.91072765
C        0.90977584       0.90977584      -0.90977584
C       -0.00465871       1.77757030       0.00794375
H       -0.66225468       2.44313916      -0.64384735
H        0.64322798       2.43503045       0.67728295
C       -1.78241447       0.00034974      -0.00472694
H       -2.45427497      -0.65498947       0.64260836
H       -2.43311707       0.67328779      -0.65473579
C       -0.91132561       0.90220522       0.91563759
C       -0.01476271      -0.02253852       1.78660255
H       -0.67934791      -0.69751639       2.42135241
H        0.63392994       0.61504881       2.47327442
C        0.01484550      -1.77751727      -0.01636693
H        0.67870853      -2.42144646      -0.68295456
H       -0.62264859      -2.45592969       0.64226336
C        1.78714474       0.01002794       0.00389507
H        2.44202412       0.67113390       0.66197326
H        2.45385902      -0.65136977      -0.64189061
C        0.91606151      -0.90478549       0.90901405
