145
Properties=species:S:1:pos:R:3 pbc="F F F"
C        0.00000000       0.00000000       0.00000000
C       10.21691051       5.96008194      -3.66815060
C        9.07442838       6.14519115      -3.97328796
C        7.66012269       6.36159729      -4.31253784
N        6.98879608       5.10484395      -4.51749004
C        6.34684600       4.42609622      -3.50406500
O        6.19624658       4.73327365      -2.34121296
C        5.79570009       3.14951307      -4.15548484
N        5.06189699       2.33435781      -3.46730071
N        4.58242091       1.21489064      -4.05387446
C        3.50816523       0.51141532      -3.54316667
O        3.30789331      -0.64356572      -3.92023527
C        2.57582911       1.13941175      -2.57018848
C        2.39314479       2.51303990      -2.44494018
N        1.51790575       3.09469146      -1.58287677
C        0.78671749       2.26008814      -0.81128479
C        0.87868230       0.87868230      -0.87868230
C        1.78082102       0.30930899      -1.77240376
C        6.20492644       3.19782603      -5.56355731
C        5.95798102       2.35069588      -6.63065247
C        6.49044579       2.70688839      -7.87093452
C        7.23306519       3.88719092      -8.03506867
C        7.45339891       4.74447642      -6.95191149
C        6.92701054       4.38805865      -5.72178193
H       11.22964724       5.78968971      -3.37327644
H        7.55620991       6.98685008      -5.20480620
H        7.16703388       6.89238231      -3.48997029
H        5.21794837       0.65371044      -4.61212265
H        2.93159956       3.22970307      -3.05492190
H        0.10358559       2.75463535      -0.12709399
H        1.86822424      -0.77123472      -1.85543337
H        5.36346691       1.45163728      -6.53578160
H        7.63648064       4.14795497      -9.01178453
H        8.01933443       5.65879435      -7.09493668
C        6.27069430       1.84790446      -9.00559565
C        6.08665241       1.12850541      -9.95587434
Br       5.78907226      -0.03470200     -11.49239462
C       -5.27208571     -10.39950780      -4.17354955
C       -5.12903957      -9.34411957      -4.71974836
C       -4.91992663      -8.04274855      -5.37158264
N       -5.18998533      -6.96619917      -4.45494557
C       -4.21797560      -6.40208214      -3.65694947
O       -3.03282909      -6.64755219      -3.59035190
C       -4.93986027      -5.32053391      -2.84030383
N       -4.26738655      -4.54886249      -2.04730646
N       -4.91567658      -3.60021572      -1.33529370
C       -4.26586277      -2.51171804      -0.78516642
O       -4.82362811      -1.85687555       0.09594079
C       -2.91855636      -2.10363615      -1.26323683
C       -2.41137172      -2.42012798      -2.51962517
N       -1.19532288      -2.02200669      -2.97814440
C       -0.45231143      -1.26650954      -2.13926945
C       -0.87868230      -0.87868230      -0.87868230
C       -2.12951389      -1.29773048      -0.43528941
C       -6.34794168      -5.36887162      -3.24949649
C       -7.44541386      -4.60582002      -2.88809549
C       -8.66645275      -4.90875068      -3.49306527
C       -8.77520468      -5.93576441      -4.44435569
C       -7.65184308      -6.68177076      -4.81617298
C       -6.44212617      -6.38185181      -4.21287315
H       -5.37815828     -11.33886952      -3.67558557
H       -5.54843969      -7.93797048      -6.26145603
H       -3.87822432      -7.96700494      -5.70415723
H       -5.77050758      -3.85992746      -0.85334642
H       -2.97193607      -3.00001208      -3.24427638
H        0.51699931      -0.97189211      -2.53042214
H       -2.49578182      -1.00114340       0.54450233
H       -7.38058002      -3.78989891      -2.18040686
H       -9.73630508      -6.15330746      -4.90660761
H       -7.74750046      -7.46498246      -5.56058254
C       -9.83741505      -4.15024235      -3.13653700
C      -10.81809597      -3.51499162      -2.83794458
Br     -12.40377408      -2.48784492      -2.35514588
C       -8.53215696       2.77780963       8.53517646
C       -8.08897527       3.45250599       7.65142623
C       -7.54082528       4.24949279       6.54393975
N       -6.11834730       4.05748436       6.43529841
C       -5.55387981       3.08500650       5.63812090
O       -6.08625255       2.28308446       4.90139617
C       -4.03781702       3.22649715       5.83638383
N       -3.22189385       2.49491505       5.14674660
N       -1.88965489       2.63082958       5.33070154
C       -0.96415243       2.19873335       4.39986145
O        0.21211233       2.06001943       4.73665577
C       -1.36297349       1.92923120       2.99322465
C       -2.47937561       2.49051054       2.38123871
N       -2.83209977       2.27738830       1.08598591
C       -2.02528453       1.46582977       0.36697612
C       -0.87868230       0.87868230       0.87868230
C       -0.53910423       1.11619424       2.20723531
C       -3.84988939       4.31899192       6.79742848
C       -2.71134122       4.91490216       7.31308599
C       -2.88784594       5.96707015       8.21335262
C       -4.16964242       6.41614298       8.56953937
C       -5.30958173       5.81896936       8.02123572
C       -5.13263372       4.77350840       7.13070900
H       -8.92680807       2.15629603       9.30950928
H       -7.76220974       5.31367084       6.67198561
H       -8.00974992       3.93532007       5.60431650
H       -1.53594609       2.66629652       6.28153885
H       -3.14759741       3.16907019       2.89955693
H       -2.33820110       1.30802027      -0.66090644
H        0.35972426       0.67803040       2.63411674
H       -1.71326833       4.60676277       7.03085469
H       -4.28484864       7.24054904       9.27082247
H       -6.29370964       6.18299651       8.29635931
C       -1.73167430       6.60686174       8.78565836
C       -0.76338055       7.14268720       9.26496442
Br       0.80226854       8.00907164      10.03996178
C        5.34947626      -4.11062988      10.38503691
C        5.66607864      -4.28312761       9.24370124
C        6.04156422      -4.45967461       7.83301899
N        4.87691994      -4.70947239       7.02473775
C        4.16169218      -3.70270872       6.41260631
O        4.36443608      -2.50773563       6.39856147
C        3.01081295      -4.40864797       5.68123710
N        2.20091117      -3.72738166       4.93526267
N        1.19285005      -4.36200699       4.29632896
C        0.54187968      -3.81282001       3.20804753
O       -0.54728910      -4.27069472       2.86115725
C        1.15179259      -2.69964203       2.43399472
C        2.51709253      -2.43367258       2.40035976
N        3.08692550      -1.44024336       1.66830512
C        2.24924996      -0.67833172       0.93050874
C        0.87868230      -0.87868230       0.87868230
C        0.32173083      -1.90504391       1.63575905
C        3.16135834      -5.84023610       5.96471534
C        2.44985042      -6.94956281       5.53991614
C        2.87777239      -8.19934843       5.99114788
C        3.99680680      -8.32926417       6.82925380
C        4.71918427      -7.20046817       7.23013437
C        4.29149774      -5.96136602       6.78398736
H        5.06016371      -3.93411988      11.39832978
H        6.75896550      -5.27728055       7.71162014
H        6.53047591      -3.54783727       7.47107330
H        0.63479223      -5.02875932       4.82022990
H        3.23923833      -3.02695567       2.95003053
H        2.73308325       0.11194328       0.36417497
H       -0.74872497      -2.09332991       1.60781795
H        1.60304768      -6.87762651       4.87021160
H        4.31566742      -9.31366658       7.16688614
H        5.58845532      -7.31591833       7.86869181
C        2.15876314      -9.37939511       5.58603614
C        1.55659290     -10.36768421       5.24675506
Br       0.58293454     -11.96566410       4.69816624
