137
Properties=species:S:1:pos:R:3 pbc="F F F"
C        0.00000000       0.00000000       0.00000000
C       10.21691051       5.96008194      -3.66815060
C        9.07442838       6.14519115      -3.97328796
C        7.66012269       6.36159729      -4.31253784
N        6.98879608       5.10484395      -4.51749004
C        6.34684600       4.42609622      -3.50406500
O        6.19624658       4.73327365      -2.34121296
C        5.79570009       3.14951307      -4.15548484
N        5.06189699       2.33435781      -3.46730071
N        4.58242091       1.21489064      -4.05387446
C        3.50816523       0.51141532      -3.54316667
O        3.30789331      -0.64356572      -3.92023527
C        2.57582911       1.13941175      -2.57018848
C        2.39314479       2.51303990      -2.44494018
N        1.51790575       3.09469146      -1.58287677
C        0.78671749       2.26008814      -0.81128479
C        0.87868230       0.87868230      -0.87868230
C        1.78082102       0.30930899      -1.77240376
C        6.20492644       3.19782603      -5.56355731
C        5.95798102       2.35069588      -6.63065247
C        6.49044579       2.70688839      -7.87093452
Br       6.20170551       1.57823504      -9.36181116
C        7.23306519       3.88719092      -8.03506867
C        7.45339891       4.74447642      -6.95191149
C        6.92701054       4.38805865      -5.72178193
H       11.22964724       5.78968971      -3.37327644
H        7.55620991       6.98685008      -5.20480620
H        7.16703388       6.89238231      -3.48997029
H        5.21794837       0.65371044      -4.61212265
H        2.93159956       3.22970307      -3.05492190
H        0.10358559       2.75463535      -0.12709399
H        1.86822424      -0.77123472      -1.85543337
H        5.36346691       1.45163728      -6.53578160
H        7.63648064       4.14795497      -9.01178453
H        8.01933443       5.65879435      -7.09493668
C       -4.00615151      -5.48258282     -10.35640873
C       -4.58158323      -5.28584299      -9.32548127
C       -5.26837517      -5.01127108      -8.05461157
N       -4.39735335      -5.27456292      -6.93921380
C       -3.58574785      -4.31070158      -6.38055778
O       -3.47084850      -3.13742000      -6.66246468
C       -2.83013522      -5.02185503      -5.24870775
N       -2.04053517      -4.34997160      -4.47304873
N       -1.38256473      -4.98869130      -3.47992997
C       -0.84675304      -4.32068067      -2.39531352
O       -0.00713651      -4.88452957      -1.69289679
C       -1.29189091      -2.94528254      -2.04825588
C       -2.51921599      -2.40810931      -2.42379957
N       -2.94896069      -1.16480352      -2.08170977
C       -2.11060370      -0.42452018      -1.32296655
C       -0.87868230      -0.87868230      -0.87868230
C       -0.46454164      -2.15694609      -1.24104605
C       -3.28516486      -6.41654637      -5.26459855
C       -2.98658526      -7.49872611      -4.45401799
C       -3.62243910      -8.70880373      -4.73702587
Br      -3.23960619     -10.22716891      -3.67497661
C       -4.54258684      -8.82107415      -5.79166379
C       -4.85125122      -7.71211175      -6.58642385
C       -4.21735143      -6.51339094      -6.30610875
H       -3.48145906      -5.63685843     -11.27429589
H       -6.18207202      -5.60625150      -7.95954266
H       -5.56764308      -3.95722175      -8.02452165
H       -0.92168616      -5.86724727      -3.69484802
H       -3.24304810      -2.96393427      -3.00924216
H       -2.47804415       0.56658839      -1.07385917
H        0.49194333      -2.54494073      -0.89942548
H       -2.30431778      -7.42949182      -3.61707619
H       -5.02985104      -9.77329415      -5.99307496
H       -5.57232246      -7.80981506      -7.39092793
C       -3.37232444      10.01316440       6.45965421
C       -3.77312048       8.88766429       6.53212272
C       -4.23001068       7.49229302       6.61195412
N       -4.38412598       6.93205062       5.29495347
C       -3.36994279       6.26369016       4.64337427
O       -2.24871155       6.00062552       5.02139612
C       -3.95770070       5.85933244       3.28366487
N       -3.26288727       5.13500440       2.46566383
N       -3.79326823       4.78542850       1.27248927
C       -3.30836687       3.72838216       0.52599819
O       -3.60739748       3.64259130      -0.66542591
C       -2.45777114       2.67962964       1.14802856
C       -2.45403018       2.38849868       2.50859600
N       -1.70594380       1.40856323       3.08096695
C       -0.92648686       0.68171690       2.24988666
C       -0.87868230       0.87868230       0.87868230
C       -1.65725491       1.88695104       0.31832783
C       -5.33181190       6.37294501       3.26155287
C       -6.34441353       6.27242488       2.32249096
C       -7.56685179       6.87309318       2.62832373
Br      -8.98180761       6.78462301       1.37532110
C       -7.76855523       7.53866294       3.84810660
C       -6.74270960       7.61072905       4.79634817
C       -5.52990722       7.01691356       4.49003035
H       -2.99230081      11.00939588       6.39091670
H       -5.17366956       7.41344982       7.16074681
H       -3.48947943       6.89910761       7.16079945
H       -4.25827403       5.50175232       0.72375510
H       -3.07755421       2.91962018       3.21905014
H       -0.33449643      -0.08696313       2.73778164
H       -1.64887708       2.05877083      -0.75522502
H       -6.22284659       5.73912628       1.38891292
H       -8.73082791       7.99731141       4.06808082
H       -6.91542426       8.11827471       5.73936648
C        9.79682351      -6.88171896       3.16660058
C        8.69763835      -6.85564451       3.63962464
C        7.33288882      -6.81580122       4.18556779
N        6.86585077      -5.45799319       4.28728611
C        6.17383240      -4.82757897       3.27559584
O        5.81525579      -5.25570429       2.19977310
C        5.89304620      -3.41080959       3.79684221
N        5.17640064      -2.59137426       3.09578060
N        4.93619622      -1.34757522       3.56741457
C        3.89751864      -0.56470319       3.10052540
O        3.90479028       0.64588835       3.32566094
C        2.75914975      -1.16782797       2.35845161
C        2.38541280      -2.50408810       2.46162396
N        1.32533967      -3.05596273       1.81417158
C        0.60145068      -2.22853304       1.02810670
C        0.87868230      -0.87868230       0.87868230
C        1.96823140      -0.33875778       1.55554460
C        6.49585437      -3.33802596       5.13242946
C        6.51965148      -2.33400342       6.08567447
C        7.17910509      -2.60285027       7.28631334
Br       7.26050525      -1.26223819       8.61900828
C        7.78029621      -3.84887794       7.52615062
C        7.72672966      -4.86099449       6.56206267
C        7.07476150      -4.59152131       5.37056832
H       10.76839154      -6.90177579       2.72244605
H        7.28241379      -7.29928315       5.16616925
H        6.65994450      -7.36908675       3.52035524
H        5.71374749      -0.81937408       3.95065989
H        2.91156971      -3.20814560       3.09650922
H       -0.23281899      -2.70051121       0.51762271
H        2.20472349       0.71870806       1.46640745
H        6.03786914      -1.37676061       5.93625604
H        8.28655141      -4.03889357       8.47077517
H        8.18562999      -5.82281409       6.76462137
