174
Properties=species:S:1:pos:R:3 pbc="F F F"
C       -6.09678282       6.85796198       0.36089438
C       -4.80490630       6.92765130      -0.43829871
C       -4.87436442       6.03453781      -1.67495516
N       -3.65644737       6.07204115      -2.45247459
C       -2.58746615       5.22594972      -2.23439325
O       -2.45166472       4.35391710      -1.40252759
C       -1.55506208       5.57790225      -3.32045356
N       -0.48687721       4.85599545      -3.43667604
N        0.36165533       5.01437943      -4.47311087
C        1.57508034       4.36080193      -4.58331388
O        2.28880350       4.57520421      -5.56408932
C        2.05044753       3.43407912      -3.52713362
C        3.42538426       3.32292011      -3.33526424
N        4.00665971       2.51253998      -2.41282844
C        3.16905543       1.76673476      -1.65513296
C        1.78927685       1.78927685      -1.78927685
C        1.22090574       2.62607677      -2.74582690
C       -2.10943756       6.72796190      -4.04640085
C       -1.59946615       7.53011166      -5.05326327
C       -2.41113234       8.56366299      -5.52944706
Br      -1.77602804       9.67484018      -6.92344545
C       -3.68684028       8.79949320      -4.99313761
C       -4.17629747       8.00205671      -3.95513917
C       -3.37474207       6.97170848      -3.49115783
H       -6.03377646       7.50052515       1.24442886
H       -6.29469113       5.83525006       0.69811895
H       -6.94823056       7.19061857      -0.24162855
H       -3.96717050       6.62053187       0.19913199
H       -4.61499472       7.96645150      -0.73183910
H       -5.72270751       6.30628269      -2.31256897
H       -5.03686393       4.99697424      -1.35746350
H        0.09933095       5.55319629      -5.28580992
H        4.12569880       3.90289495      -3.93266235
H        3.65826428       1.13063086      -0.92292384
H        0.14385440       2.63295446      -2.87745483
H       -0.60516985       7.39966830      -5.45846172
H       -4.30041873       9.61359950      -5.37477131
H       -5.15453973       8.20661652      -3.53335982
C        6.99105036      -5.71333272      -1.67800242
C        5.60664795      -5.88405250      -2.28363915
C        5.33795212      -4.82383042      -3.34925024
N        4.02470389      -4.95382191      -3.93895034
C        2.89745861      -4.33998749      -3.43034793
O        2.77987543      -3.63186759      -2.45278781
C        1.75832572      -4.70110246      -4.40051699
N        0.59340312      -4.16024312      -4.23895429
N       -0.38585224      -4.30875564      -5.15453775
C       -1.68159122      -3.85984891      -4.97775602
O       -2.51196503      -4.04828587      -5.86784613
C       -2.10040979      -3.18776971      -3.72348077
C       -3.42492278      -3.33839875      -3.32024707
N       -3.95283804      -2.77840703      -2.20078306
C       -3.11550729      -2.01885359      -1.45656226
C       -1.78927685      -1.78927685      -1.78927685
C       -1.27589639      -2.37230816      -2.94460486
C        2.34185788      -5.62509375      -5.38168932
C        1.79017879      -6.34866072      -6.42542684
C        2.64994708      -7.15157346      -7.18035133
Br       1.95542657      -8.14199288      -8.63569128
C        4.01818709      -7.24377928      -6.88019833
C        4.55577923      -6.53273288      -5.80394476
C        3.70427658      -5.72948963      -5.06291119
H        7.17061364      -6.47742939      -0.91550407
H        7.09399362      -4.73106709      -1.20536650
H        7.76771328      -5.80788685      -2.44384299
H        4.85290067      -5.81710586      -1.49002419
H        5.52116777      -6.88693322      -2.71753043
H        6.09693406      -4.85446720      -4.13861102
H        5.40090968      -3.83020958      -2.88827390
H       -0.18949644      -4.67336940      -6.07547131
H       -4.12518791      -3.93613254      -3.89993566
H       -3.56064311      -1.58600637      -0.56516951
H       -0.24671502      -2.17878389      -3.22876478
H        0.73357994      -6.33067504      -6.65586507
H        4.66918947      -7.87961143      -7.47753011
H        5.61015474      -6.62808136      -5.56750997
C       -2.44096148      -7.19659022       5.15591352
C       -2.97352803      -5.78945997       5.37697565
C       -3.95303034      -5.39264766       4.27474586
N       -4.47136004      -4.05500764       4.45171597
C       -3.85985352      -2.92761615       3.94063944
O       -2.83467240      -2.82994780       3.30005537
C       -4.78196035      -1.75324698       4.31458036
N       -4.51855830      -0.57089710       3.85813308
N       -5.38239069       0.45328799       4.01346694
C       -5.10187768       1.75960389       3.65771459
O       -5.95157556       2.63151195       3.84500952
C       -3.78552340       2.13795511       3.08818176
C       -3.31521966       3.42346689       3.34488205
N       -2.13376868       3.91234786       2.88591158
C       -1.39407072       3.07626426       2.12058818
C       -1.78927685       1.78927685       1.78927685
C       -3.00704516       1.31576465       2.26999960
C       -5.85168433      -2.32762557       5.14086644
C       -6.90435854      -1.75527503       5.83482527
C       -7.75735931      -2.61189726       6.53651566
Br      -9.22840239      -1.88718845       7.48104365
C       -7.54464855      -3.99928929       6.56043127
C       -6.45953262      -4.56037699       5.88174278
C       -5.62083740      -3.71110110       5.17838795
H       -1.73967173      -7.46819542       5.95084352
H       -1.91466622      -7.27089367       4.19866743
H       -3.25561677      -7.92802310       5.15642289
H       -2.13427797      -5.08422159       5.40417301
H       -3.46354022      -5.73619341       6.35594908
H       -4.78607795      -6.10122964       4.21129584
H       -3.43528659      -5.42571506       3.30800228
H       -6.33429676       0.29382042       4.31021998
H       -3.88893793       4.12222358       3.95009459
H       -0.45267808       3.48945799       1.76968292
H       -3.33864203       0.31956649       1.99605516
H       -7.07060639      -0.68710435       5.86945813
H       -8.21789164      -4.64794186       7.11800228
H       -6.29202072      -5.63126294       5.92467882
C        3.81976903       7.36197957       3.94249532
C        4.21926107       5.93276308       4.27454571
C        5.00786863       5.30190097       3.12916088
N        5.39548216       3.93818729       3.41077349
C        4.60728175       2.84509847       3.11069354
O        3.50705125       2.80432564       2.60205436
C        5.43503651       1.61455575       3.52281297
N        4.99095736       0.43067494       3.24551186
N        5.75084589      -0.66834255       3.42995718
C        5.28871157      -1.96149038       3.26899420
O        6.05510592      -2.90507997       3.46791114
C        3.87940040      -2.23589297       2.89636690
C        3.30707919      -3.41878761       3.35770180
N        2.03234745      -3.80669281       3.09298787
C        1.29999399      -2.97469026       2.31623890
C        1.78927685      -1.78927685       1.78927685
C        3.10082367      -1.41860492       2.07338082
C        6.65368984       2.14036672       4.15160208
C        7.71475368       1.52257554       4.79173064
C        8.73505385       2.33975993       5.28668379
Br      10.22290167       1.54779842       6.14715435
C        8.67888617       3.73706475       5.16396911
C        7.58645784       4.34936559       4.54380616
C        6.58086584       3.53750094       4.04475934
H        3.25449995       7.80195162       4.76977150
H        3.19173188       7.39553320       3.04624130
H        4.70301026       7.98414698       3.76515329
H        3.31798577       5.34245201       4.47869563
H        4.81644243       5.92675514       5.19360859
H        5.89896122       5.89232867       2.88951160
H        4.38262723       5.29269687       2.22764344
H        6.74351507      -0.59501621       3.59980589
H        3.87105606      -4.11244011       3.97775992
H        0.28351273      -3.30549830       2.12280796
H        3.50275956      -0.50606793       1.64543621
H        7.76692144       0.45223437       4.93827311
H        9.48164813       4.35536733       5.56167126
H        7.54281050       5.43096892       4.47359502
C       -0.00445707       0.01189536      -1.78238275
H       -0.66409135       0.67374010      -2.43557963
H        0.65740317      -0.63156657      -2.45157240
C       -0.90989263      -0.90692880      -0.91072765
C        0.90977584       0.90977584      -0.90977584
C       -0.00465871       1.77757030       0.00794375
H       -0.66225468       2.44313916      -0.64384735
H        0.64322798       2.43503045       0.67728295
C       -1.78241447       0.00034974      -0.00472694
H       -2.45427497      -0.65498947       0.64260836
H       -2.43311707       0.67328779      -0.65473579
C       -0.91132561       0.90220522       0.91563759
C       -0.01476271      -0.02253852       1.78660255
H       -0.67934791      -0.69751639       2.42135241
H        0.63392994       0.61504881       2.47327442
C        0.01484550      -1.77751727      -0.01636693
H        0.67870853      -2.42144646      -0.68295456
H       -0.62264859      -2.45592969       0.64226336
C        1.78714474       0.01002794       0.00389507
H        2.44202412       0.67113390       0.66197326
H        2.45385902      -0.65136977      -0.64189061
C        0.91606151      -0.90478549       0.90901405
