186
Properties=species:S:1:pos:R:3 pbc="F F F"
C        2.57298884      13.30633516      -4.67376824
C        3.74278866      12.56415489      -5.30627218
C        3.50297890      12.13735229      -6.75951999
C        2.32500138      11.18272869      -7.00044726
N        2.53057185       9.85546696      -6.45960975
C        2.31016353       9.53253473      -5.13247300
O        1.92604266      10.23160708      -4.22009203
C        2.63225909       8.03994284      -5.00765448
N        2.48722369       7.44766463      -3.86622879
N        2.77948734       6.13281388      -3.72600007
C        2.13836841       5.41421981      -2.72480050
O        1.31955103       5.89249475      -1.94350184
C        2.41069662       3.95530190      -2.65276614
C        3.39187886       3.30492389      -3.39072299
N        3.59795492       1.96653132      -3.37782223
C        2.78418279       1.23592138      -2.57477888
C        1.78851923       1.78851923      -1.78851923
C        1.59721815       3.16505153      -1.82476807
C        2.99208414       7.58722411      -6.35678173
C        3.30497264       6.33554279      -6.86162151
C        3.52134108       6.22656026      -8.23628277
Br       3.95423022       4.53822558      -8.97311323
C        3.40994615       7.33999812      -9.08138880
C        3.09812106       8.59960696      -8.55770348
C        2.89436663       8.71126642      -7.19085117
H        2.80243141      13.54673942      -3.63024742
H        1.65302161      12.71699684      -4.67568089
H        2.37387663      14.24326723      -5.20215932
H        4.00906761      11.69631076      -4.69471770
H        4.61705862      13.22637594      -5.28099759
H        4.42346824      11.67614160      -7.13887947
H        3.33794373      13.04260492      -7.35705394
H        2.14081287      11.11305519      -8.07724202
H        1.40772160      11.59032303      -6.56368865
H        3.53417842       5.75793138      -4.27514295
H        4.08182613       3.82861969      -4.04670950
H        2.96736689       0.16546752      -2.59061945
H        0.81535732       3.62893262      -1.22923503
H        3.35700445       5.45113182      -6.24415968
H        3.55242384       7.22841512     -10.15485146
H        2.99799920       9.44483177      -9.22970409
C      -13.41816592      -3.46217052      -3.67275580
C      -12.63583933      -4.31276144      -4.66461497
C      -12.42161007      -5.76315146      -4.21508965
C      -11.63987217      -5.95981177      -2.90849340
N      -10.24127546      -5.59818804      -3.00618506
C       -9.78250118      -4.29768098      -2.89498910
O      -10.40104722      -3.27328442      -2.70341013
C       -8.25962455      -4.37897842      -3.04125344
N       -7.54996541      -3.30063117      -2.95052053
N       -6.20374248      -3.34345033      -3.09110848
C       -5.44156269      -2.35577539      -2.48005064
O       -5.90651860      -1.43105659      -1.81797242
C       -3.96392289      -2.47924334      -2.57559842
C       -3.30598536      -3.40031881      -3.38122157
N       -1.96183399      -3.56060582      -3.41986866
C       -1.23140241      -2.74825186      -2.61522878
C       -1.78851923      -1.78851923      -1.78851923
C       -3.17154988      -1.64888743      -1.76660045
C       -7.94086305      -5.80391577      -3.19131116
C       -6.73466703      -6.47846411      -3.28900581
C       -6.77385042      -7.87292006      -3.33741363
Br      -5.15260357      -8.83923377      -3.47373168
C       -7.98894775      -8.56983349      -3.27255183
C       -9.20050697      -7.87595925      -3.17896528
C       -9.16354224      -6.49047359      -3.14246839
H      -13.50053831      -2.43508004      -4.04379991
H      -12.93858312      -3.41488446      -2.69223176
H      -14.42958614      -3.85532376      -3.53439329
H      -11.67483566      -3.83831609      -4.88694432
H      -13.18943199      -4.32331216      -5.61168800
H      -11.91243007      -6.30223024      -5.02382900
H      -13.40661102      -6.23220607      -4.09878550
H      -11.72500611      -7.00651845      -2.59958551
H      -12.08870617      -5.37043413      -2.10259298
H       -5.81901794      -4.01988605      -3.72834877
H       -3.82777272      -4.07509175      -4.05429085
H       -0.15756389      -2.90452404      -2.66136593
H       -3.64127958      -0.91352963      -1.11871577
H       -5.78019694      -5.97344631      -3.29865270
H       -7.99635089      -9.65838636      -3.28095316
H      -10.12839611      -8.43311289      -3.11102605
C       -9.64673305       0.30589184      10.60046735
C       -9.42462067       1.79786995      10.39072511
C      -10.45987563       2.46379426       9.47618130
C      -10.54083799       1.92735474       8.03998461
N       -9.37532721       2.23312876       7.23719259
C       -8.20886426       1.49015926       7.27614774
O       -7.94016272       0.50650948       7.93106958
C       -7.26084029       2.14961070       6.26940542
N       -6.08631030       1.64387454       6.07093227
N       -5.22406896       2.21652644       5.19770590
C       -4.25305043       1.41903238       4.60530592
O       -4.11416706       0.21788990       4.82349065
C       -3.37995315       2.05427224       3.58453926
C       -3.34739609       3.41819009       3.32193956
N       -2.60295282       3.99221343       2.34714222
C       -1.83950297       3.15809721       1.59728286
C       -1.78851923       1.78851923       1.78851923
C       -2.56636962       1.22633905       2.79432908
C       -8.01351012       3.25616523       5.66641464
C       -7.69801767       4.14901597       4.65510330
C       -8.68784078       5.04608654       4.25025680
Br      -8.30410426       6.28716480       2.87429997
C       -9.96312130       5.03495197       4.83325981
C      -10.26701986       4.13107128       5.85734036
C       -9.28094960       3.24728123       6.26825340
H       -8.85256741      -0.10557416      11.23242500
H       -9.63762223      -0.25462866       9.66270577
H      -10.60470180       0.11981170      11.09478968
H       -8.41324988       1.97523517      10.01161103
H       -9.46547732       2.28720915      11.37174568
H      -10.25092532       3.54055707       9.44700693
H      -11.44733777       2.34968728       9.94057753
H      -11.43341321       2.33927234       7.55842452
H      -10.67554091       0.84102069       8.04517167
H       -5.24688229       3.21758721       5.10278325
H       -3.92662740       4.14254119       3.88798673
H       -1.25956174       3.64515034       0.81874177
H       -2.55902705       0.15255856       2.96193935
H       -6.73982845       4.15534268       4.15712481
H      -10.73099506       5.72224676       4.48244860
H      -11.26454615       4.12529908       6.28268983
C        1.56951780      -6.11010856      12.87346588
C        2.77375716      -6.69331672      12.14614186
C        4.08209592      -5.93058813      12.38716713
C        4.10021561      -4.45945538      11.94850635
N        4.05405300      -4.27894154      10.51265402
C        2.88158399      -4.31455776       9.77902950
O        1.74109164      -4.48482573      10.15182439
C        3.29215504      -4.06309790       8.32460346
N        2.38463904      -4.01306559       7.40341249
N        2.72278137      -3.80716740       6.10835252
C        1.78367016      -3.23250564       5.26121293
O        0.65212295      -2.89883967       5.60458499
C        2.21297356      -2.93578138       3.87000971
C        3.41404670      -3.35899257       3.31448647
N        3.83824535      -3.03387725       2.07018588
C        3.01178849      -2.24899046       1.33410410
C        1.78851923      -1.78851923       1.78851923
C        1.38045103      -2.13504245       3.07154427
C        4.74417087      -3.84889390       8.34302521
C        5.64419532      -3.51332374       7.34461788
C        6.97236999      -3.29657672       7.71523740
Br       8.23995972      -2.83864016       6.38696916
C        7.38077363      -3.39765765       9.05290179
C        6.46236344      -3.74222124      10.05084682
C        5.14520071      -3.96907035       9.68221316
H        0.66952302      -6.68323271      12.62666253
H        1.37719362      -5.07049334      12.59801237
H        1.71123151      -6.15065098      13.95742070
H        2.56566256      -6.76076722      11.07366629
H        2.90852473      -7.72654510      12.48936231
H        4.89220717      -6.46793972      11.87834244
H        4.30645544      -5.97075343      13.46039372
H        5.00139819      -3.98268037      12.34703151
H        3.25483338      -3.91978461      12.38711528
H        3.59682699      -4.18546954       5.78495622
H        4.11827923      -3.99453155       3.84434454
H        3.38122424      -1.99823564       0.34399398
H        0.43124459      -1.77904322       3.46323716
H        5.35350372      -3.38642659       6.31236564
H        8.41488760      -3.19485713       9.32594569
H        6.79341211      -3.79705642      11.08206651
C       -0.00445707       0.01189536      -1.78238275
H       -0.66409135       0.67374010      -2.43557963
H        0.65740317      -0.63156657      -2.45157240
C       -0.90989263      -0.90692880      -0.91072765
C        0.90977584       0.90977584      -0.90977584
C       -0.00465871       1.77757030       0.00794375
H       -0.66225468       2.44313916      -0.64384735
H        0.64322798       2.43503045       0.67728295
C       -1.78241447       0.00034974      -0.00472694
H       -2.45427497      -0.65498947       0.64260836
H       -2.43311707       0.67328779      -0.65473579
C       -0.91132561       0.90220522       0.91563759
C       -0.01476271      -0.02253852       1.78660255
H       -0.67934791      -0.69751639       2.42135241
H        0.63392994       0.61504881       2.47327442
C        0.01484550      -1.77751727      -0.01636693
H        0.67870853      -2.42144646      -0.68295456
H       -0.62264859      -2.45592969       0.64226336
C        1.78714474       0.01002794       0.00389507
H        2.44202412       0.67113390       0.66197326
H        2.45385902      -0.65136977      -0.64189061
C        0.91606151      -0.90478549       0.90901405
