198
Properties=species:S:1:pos:R:3 pbc="F F F"
C        1.79198612       1.79198612      -1.79198612
C        1.71470486       1.68721574      -3.17613194
C        2.52860815       2.49649734      -3.97634261
C        3.42512453       3.42086949      -3.41487188
C        3.47594336       3.50621251      -2.01566487
C        2.66929614       2.69801481      -1.20598990
C        4.27038742       4.27320100      -4.26726931
N        4.22649679       4.20187391      -5.61036135
N        5.02978171       5.32665169      -6.12497335
C        4.93262679       5.77553075      -7.44744045
C        5.30124414       7.06539157      -7.85264220
C        5.17502930       7.48653265      -9.18421344
C        4.68147749       6.61654302     -10.15048968
C        4.31821698       5.32675926      -9.78244517
C        4.44525756       4.91956072      -8.44907532
C        5.45764113       6.18329585      -5.01425635
H        4.93385946       7.14624298      -4.99694853
C        5.13922221       5.38309584      -3.77247529
H        4.66075658       6.01391425      -3.01592265
C        6.49112029       4.92655583      -3.26649367
O        6.61637795       4.31165741      -2.20754365
N        7.49445016       5.44762440      -4.05861439
C        8.90086519       5.23458362      -3.85531904
C        9.39119516       4.38408796      -2.84730150
C       10.76496286       4.19167736      -2.63607579
C       11.68623169       4.83793657      -3.44683810
Br      13.53691711       4.59196782      -3.15996872
C       11.24271807       5.65700938      -4.47518063
C        9.86646753       5.84184270      -4.67921737
C        6.95829399       6.37511620      -4.93098009
O        7.54157625       7.31601079      -5.47045044
H        1.03426649       0.98783762      -3.65048303
H        2.46074957       2.40865923      -5.05916991
H        4.15732168       4.19742709      -1.52930552
H        2.74514908       2.78659717      -0.12705243
H        5.68449809       7.78001357      -7.13355545
H        5.46283585       8.49778260      -9.45358937
H        4.58006669       6.94104706     -11.18046603
H        3.93260348       4.62927790     -10.51842885
H        4.15769186       3.90753079      -8.17401316
H        8.72682005       3.83158311      -2.19039287
H       11.08943798       3.53065919      -1.83701004
H       11.94724238       6.15713653      -5.13389890
H        9.58292260       6.47009477      -5.51898557
C       -1.79198612      -1.79198612      -1.79198612
C       -1.20934147      -2.66581189      -2.70289918
C       -2.02474275      -3.46753525      -3.50917009
C       -3.42571914      -3.41547233      -3.41967442
C       -3.98276820      -2.52746069      -2.48759185
C       -3.17610159      -1.71776615      -1.67943311
C       -4.27329331      -4.27020370      -4.26736072
N       -3.74888824      -5.12806836      -5.16177545
N       -4.86167534      -5.95521817      -5.66451324
C       -4.65357141      -7.16564806      -6.33637851
C       -5.62115463      -8.17569040      -6.42243289
C       -5.37214682      -9.38326430      -7.09036428
C       -4.14226924      -9.60599284      -7.70024811
C       -3.16594042      -8.61886698      -7.64261400
C       -3.42535052      -7.41916494      -6.96937814
C       -6.08683650      -5.64962293      -4.91873390
H       -6.38054334      -6.45782162      -4.23868600
C       -5.75657777      -4.39588593      -4.14232964
H       -6.10671275      -4.47606090      -3.10781982
C       -6.52801714      -3.30375240      -4.85240025
O       -6.55697269      -2.14755574      -4.43105057
N       -7.28181182      -3.84389047      -5.87498665
C       -8.15042002      -3.09751343      -6.74283441
C       -8.25066886      -1.69558881      -6.67632695
C       -9.11373572      -0.96865326      -7.51032704
C       -9.88939531      -1.63237817      -8.44923288
Br     -11.06163924      -0.66041309      -9.56680132
C       -9.79288847      -3.01113098      -8.57088863
C       -8.92552774      -3.72904875      -7.73295110
C       -7.24715902      -5.22267834      -5.79455291
O       -8.08228766      -6.01646521      -6.22928460
H       -0.13142071      -2.73878206      -2.80238436
H       -1.56007981      -4.14966630      -4.21883260
H       -5.05990550      -2.44074197      -2.38340682
H       -3.64531725      -1.03604953      -0.97743190
H       -6.59167602      -8.04963107      -5.95676002
H       -6.14603484     -10.14348924      -7.12468373
H       -3.94629668     -10.54047995      -8.21480315
H       -2.19957744      -8.76840513      -8.11232766
H       -2.65300176      -6.65456491      -6.93166914
H       -7.65802062      -1.11111056      -5.97966485
H       -9.15892844       0.11243412      -7.41061287
H      -10.37708227      -3.54833851      -9.31285703
H       -8.87245041      -4.80154499      -7.89800754
C       -1.79198612       1.79198612       1.79198612
C       -2.22034609       3.03031793       1.32738852
C       -3.02514313       3.83315461       2.14315035
C       -3.41759470       3.41704329       3.42622791
C       -2.97320802       2.16064089       3.86397182
C       -2.16407399       1.35168306       3.05754381
C       -4.27177526       4.26686909       4.27221338
N       -4.70656211       5.47192278       3.86024716
N       -5.69296142       5.93372927       4.85471605
C       -6.59979383       6.96667208       4.58913207
C       -7.80653732       7.13017968       5.28256091
C       -8.69934062       8.16789214       4.97854264
C       -8.39841228       9.07862069       3.97147721
C       -7.20383652       8.95030624       3.27327864
C       -6.32265113       7.90768300       3.58355947
C       -5.94649462       4.87328350       5.83541521
H       -6.93764813       4.41910709       5.72029575
C       -4.86167789       3.85251198       5.58060347
H       -5.27553074       2.83863749       5.57642524
C       -3.92025775       4.00786472       6.75604733
O       -2.95313344       3.26392974       6.91851583
N       -4.41515251       4.94660512       7.63893131
C       -3.78750209       5.32988226       8.87338350
C       -2.53364935       4.82484244       9.26409284
C       -1.93002272       5.18384672      10.47884658
C       -2.56496125       6.07717936      11.32886574
Br      -1.76279356       6.55532502      12.97073508
C       -3.78596552       6.62551748      10.96342508
C       -4.38084036       6.26113204       9.74555520
C       -5.70055855       5.29367885       7.27015288
O       -6.58813911       5.74539734       7.99450102
H       -1.94194551       3.38873160       0.34191003
H       -3.35690244       4.80074232       1.77093394
H       -3.23969955       1.79392429       4.85043045
H       -1.83232826       0.39028662       3.43618380
H       -8.08652200       6.44087314       6.07067196
H       -9.62820815       8.25240246       5.53359721
H       -9.08885680       9.88024621       3.73247677
H       -6.94593903       9.64945990       2.48491130
H       -5.39095989       7.81837017       3.02990574
H       -1.97214840       4.13826753       8.63838010
H       -0.96446066       4.75679471      10.73585183
H       -4.29085915       7.34180414      11.60561452
H       -5.32126465       6.74793880       9.50279949
C        1.79198612      -1.79198612       1.79198612
C        3.16266883      -1.84880658       1.56657713
C        3.96256551      -2.66185688       2.37702570
C        3.41456510      -3.42455153       3.42174926
C        2.02937012      -3.34171537       3.62673525
C        1.21957804      -2.53492324       2.81879957
C        4.26754655      -4.26987349       4.27343769
N        5.59773972      -4.35336494       4.08762739
N        6.14352166      -5.10402580       5.23385929
C        7.50457472      -5.08977700       5.56124625
C        7.99260268      -5.38551697       6.84115826
C        9.36259232      -5.34554155       7.13764152
C       10.28394041      -5.01480173       6.14976805
C        9.83235443      -4.72772376       4.86734322
C        8.46176912      -4.76720357       4.58492092
C        5.08304662      -5.35764113       6.21450558
H        5.19604336      -4.75660874       7.12439885
C        3.80474588      -4.99576835       5.49427911
H        3.15034665      -4.40049122       6.13975561
C        3.14959634      -6.32961511       5.20495834
O        2.03278021      -6.40925422       4.69354457
N        3.89980183      -7.35377089       5.74711623
C        3.56252065      -8.74889390       5.67935330
C        2.44481429      -9.21493749       4.96283284
C        2.10422292     -10.57523726       4.91325583
C        2.89100839     -11.50927831       5.57071966
Br       2.43107435     -13.34051675       5.51726256
C        4.02218124     -11.09413099       6.25859585
C        4.35515947      -9.73134512       6.30102301
C        4.89361069      -6.82364218       6.54713741
O        5.46566888      -7.37340145       7.48896715
H        3.62663257      -1.27410260       0.77185197
H        5.03494250      -2.69944851       2.19418769
H        1.55267425      -3.91694406       4.41443598
H        0.15046773      -2.50555523       3.00277572
H        7.31169183      -5.64193303       7.64444225
H        9.69736528      -5.57186412       8.14497842
H       11.34383358      -4.98022935       6.37751685
H       10.53177651      -4.46907272       4.07946100
H        8.12126238      -4.54067160       3.57730183
H        1.79794086      -8.54198536       4.40886982
H        1.22470436     -10.87985320       4.35254963
H        4.66280604     -11.81142492       6.76404685
H        5.26873437      -9.47373276       6.82953580
C       -0.00445707       0.01189536      -1.78238275
H       -0.66409135       0.67374010      -2.43557963
H        0.65740317      -0.63156657      -2.45157240
C       -0.90989263      -0.90692880      -0.91072765
C        0.90977584       0.90977584      -0.90977584
C       -0.00465871       1.77757030       0.00794375
H       -0.66225468       2.44313916      -0.64384735
H        0.64322798       2.43503045       0.67728295
C       -1.78241447       0.00034974      -0.00472694
H       -2.45427497      -0.65498947       0.64260836
H       -2.43311707       0.67328779      -0.65473579
C       -0.91132561       0.90220522       0.91563759
C       -0.01476271      -0.02253852       1.78660255
H       -0.67934791      -0.69751639       2.42135241
H        0.63392994       0.61504881       2.47327442
C        0.01484550      -1.77751727      -0.01636693
H        0.67870853      -2.42144646      -0.68295456
H       -0.62264859      -2.45592969       0.64226336
C        1.78714474       0.01002794       0.00389507
H        2.44202412       0.67113390       0.66197326
H        2.45385902      -0.65136977      -0.64189061
C        0.91606151      -0.90478549       0.90901405
