185
Properties=species:S:1:pos:R:3 pbc="F F F"
C        0.00000000       0.00000000       0.00000000
C        0.88208209       0.88208209      -0.88208209
C        0.80480083       0.77731171      -2.26622791
C        1.61870412       1.58659332      -3.06643858
C        2.51522050       2.51096547      -2.50496785
C        2.56603934       2.59630848      -1.10576084
C        1.75939212       1.78811079      -0.29608588
C        3.36048339       3.36329698      -3.35736529
N        3.31659277       3.29196989      -4.70045732
N        4.11987769       4.41674766      -5.21506933
C        4.02272277       4.86562672      -6.53753642
C        4.39134012       6.15548754      -6.94273818
C        4.26512528       6.57662863      -8.27430942
C        3.77157346       5.70663899      -9.24058566
C        3.40831295       4.41685523      -8.87254114
C        3.53535354       4.00965669      -7.53917130
C        4.54773710       5.27339182      -4.10435233
H        4.02395543       6.23633895      -4.08704450
C        4.22931818       4.47319182      -2.86257126
H        3.75085255       5.10401022      -2.10601862
C        5.58121626       4.01665181      -2.35658964
O        5.70647393       3.40175338      -1.29763963
N        6.58454613       4.53772038      -3.14871036
C        7.99096117       4.32467960      -2.94541501
C        8.48129114       3.47418394      -1.93739747
C        9.85505884       3.28177333      -1.72617177
C       10.77632767       3.92803254      -2.53693407
C       10.33281404       4.74710536      -3.56527661
C        8.95656350       4.93193867      -3.76931334
C        6.04838996       5.46521217      -4.02107607
O        6.63167222       6.40610676      -4.56054642
H        0.12436246       0.07793359      -2.74057901
H        1.55084554       1.49875520      -4.14926588
H        3.24741765       3.28752307      -0.61940150
H        1.83524506       1.87669315       0.78285160
H        4.77459407       6.87010955      -6.22365142
H        4.55293182       7.58787858      -8.54368534
H        3.67016266       6.03114303     -10.27056201
H        3.02269946       3.71937387      -9.60852483
H        3.24778784       2.99762677      -7.26410913
H        7.81691603       2.92167909      -1.28048885
H       10.17953395       2.62075516      -0.92710601
H       11.03733835       5.24723250      -4.22399488
H        8.67301858       5.56019074      -4.60908154
C       12.18721699       3.74051571      -2.31823621
C       13.36883680       3.58347035      -2.13507675
Br      15.27941609       3.32954130      -1.83892340
C       -0.88208209      -0.88208209      -0.88208209
C       -2.24401392      -0.98268547      -0.62164107
C       -3.04384862      -1.79544301      -1.43244438
C       -2.50459123      -2.51444742      -2.51211517
C       -1.12829276      -2.38799540      -2.75182050
C       -0.31847139      -1.58115126      -1.94396614
C       -3.35774248      -3.35980973      -3.36359345
N       -4.67959077      -3.48488626      -3.14454295
N       -5.23642707      -4.21929007      -4.29597753
C       -6.60587887      -4.23378409      -4.58622295
C       -7.12089046      -4.50842615      -5.86024922
C       -8.49911049      -4.49828780      -6.11866503
C       -9.40142024      -4.21968406      -5.09769382
C       -8.92252207      -3.95476940      -3.82041786
C       -7.54410765      -3.96401895      -3.57605493
C       -4.19696278      -4.41718560      -5.31133288
H       -4.35107561      -3.79530686      -6.20095642
C       -2.90946303      -4.03966597      -4.61595226
H       -2.28930538      -3.40947942      -5.26209660
C       -2.21104702      -5.36222884      -4.38118185
O       -1.07882538      -5.42474449      -3.90229707
N       -2.94817029      -6.39176226      -4.93104432
C       -2.57185052      -7.77837449      -4.91083077
C       -1.42272186      -8.23248564      -4.23766505
C       -1.04452962      -9.58372137      -4.23475295
C       -1.82380097     -10.52112218      -4.89637114
C       -2.98423151     -10.11900911      -5.54195539
C       -3.35468585      -8.76527107      -5.53785860
C       -3.97751349      -5.86795884      -5.68920588
O       -4.56036149      -6.40781648      -6.63014744
H       -2.70114497      -0.44251088       0.20078079
H       -4.10938454      -1.86746799      -1.22201411
H       -0.65823133      -2.92853180      -3.56757909
H        0.74398947      -1.51740333      -2.15567275
H       -6.45574593      -4.72433920      -6.68826991
H       -8.85532965      -4.70665087      -7.12251522
H      -10.46773383      -4.20824143      -5.29589244
H       -9.60664859      -3.73672013      -3.00722944
H       -7.18215679      -3.75529616      -2.57207079
H       -0.77910872      -7.55706073      -3.68291451
H       -0.14203699      -9.87890996      -3.70644818
H       -3.61907419     -10.83987200      -6.04961956
H       -4.28906158      -8.51885345      -6.03437584
C       -1.43485595     -11.90758188      -4.90353108
C       -1.10911449     -13.06874188      -4.90952753
Br      -0.58241811     -14.94623939      -4.91922328
C       -0.88208209       0.88208209       0.88208209
C       -1.10374501       0.53472633       2.20986912
C       -1.91566049       1.34645047       3.00962506
C       -2.51386448       2.51282200       2.50446734
C       -2.26686323       2.83860579       1.16263965
C       -1.45986454       2.03096657       0.35275767
C       -3.35938646       3.36371876       3.35804044
N       -3.59943651       3.06221033       4.64737313
N       -4.29100085       4.22391428       5.23677954
C       -4.38879418       4.41723005       6.61986168
C       -4.61125866       5.66895750       7.20934967
C       -4.68745886       5.82812942       8.60047504
C       -4.55068013       4.72795575       9.44016224
C       -4.34085763       3.47118955       8.88566215
C       -4.26276873       3.32594136       7.49547144
C       -4.33750213       5.32204521       4.26593391
H       -3.66797754       6.14888862       4.53047273
C       -3.91338499       4.69247423       2.95922205
H       -3.19404856       5.33105886       2.43577397
C       -5.19243508       4.60843226       2.15359037
O       -5.20251178       4.21661691       0.98673825
N       -6.23358987       5.18146893       2.85591808
C       -7.58565043       5.29299775       2.38240760
C       -7.99762416       4.73882398       1.15642441
C       -9.31313743       4.86501124       0.68485527
C      -10.25797716       5.53924954       1.44406758
C       -9.90052211       6.06913596       2.67553794
C       -8.58242705       5.93633284       3.13905563
C       -5.73722922       5.82333673       3.97411226
O       -6.25209205       6.75909625       4.58713709
H       -0.65906260      -0.35643448       2.64024694
H       -2.08290460       1.06754968       4.04841235
H       -2.71139459       3.72407740       0.71887022
H       -1.30099625       2.31154775      -0.68345739
H       -4.71725597       6.55575695       6.59534212
H       -4.85099395       6.81729265       9.01620915
H       -4.60617821       4.84910696      10.51658254
H       -4.23312983       2.59764359       9.51982474
H       -4.09845075       2.33702139       7.07405160
H       -7.31611020       4.18118452       0.52178924
H       -9.57553572       4.42549797      -0.27363856
H      -10.62988211       6.58400453       3.29467910
H       -8.37319429       6.34568078       4.12341579
C      -11.60700055       5.67888269       0.96008567
C      -12.73680764       5.79582545       0.55475082
Br     -14.56361014       5.98491200      -0.10064135
C        0.88208209      -0.88208209       0.88208209
C        1.26587021      -2.14291087       0.43955938
C        2.07100842      -2.94546584       1.25526176
C        2.50793369      -2.50691678       2.51630336
C        2.10788471      -1.22829831       2.93192564
C        1.29881784      -0.41927050       2.12550044
C        3.36200950      -3.35695712       3.36217904
N        3.75447385      -4.58334219       2.97120393
N        4.75462920      -5.04529947       3.95176600
C        5.62713798      -6.10842152       3.69032641
C        6.84720985      -6.28589430       4.35646169
C        7.70455751      -7.35440314       4.05710267
C        7.35363855      -8.28253097       3.08262859
C        6.14469120      -8.14067281       2.41234532
C        5.29924620      -7.06740276       2.71753257
C        5.06135169      -3.96698161       4.89714796
H        6.06050055      -3.54235267       4.74448566
C        3.99687613      -2.92473993       4.64346521
H        4.43650782      -1.92263411       4.60173946
C        3.08323840      -3.02469570       5.84652361
O        2.14028586      -2.25144786       6.01413321
N        3.57695684      -3.95311646       6.74090357
C        2.97255391      -4.28763199       8.00086987
C        1.74295042      -3.73962572       8.41029641
C        1.16265944      -4.05103013       9.64931437
C        1.79662708      -4.93863365      10.50603355
C        2.99295646      -5.52838581      10.12385374
C        3.56455797      -5.21145246       8.88180509
C        4.84275103      -4.34353476       6.34839241
O        5.73725770      -4.79976541       7.06130229
H        0.95229346      -2.51914161      -0.52856000
H        2.36769921      -3.93079122       0.90037621
H        2.40980087      -0.84342944       3.90111190
H        1.00215102       0.56003330       2.48696889
H        7.16568143      -5.58413416       5.11853945
H        8.64531611      -7.44914132       4.59003832
H        8.01658339      -9.10807371       2.84721060
H        5.84803069      -8.85286524       1.64970222
H        4.35582693      -6.96775437       2.18594243
H        1.18297665      -3.05479404       7.78131326
H        0.21559300      -3.59204930       9.91975283
H        3.49603128      -6.24098351      10.77155094
H        4.48533891      -5.72911315       8.62783880
C        1.20926383      -5.25438595      11.78231914
C        0.71734710      -5.51882849      12.85120831
Br      -0.07804064      -5.94640972      14.57951171
