177
Properties=species:S:1:pos:R:3 pbc="F F F"
C        0.00000000       0.00000000       0.00000000
C        0.88208209       0.88208209      -0.88208209
C        0.80480083       0.77731171      -2.26622791
C        1.61870412       1.58659332      -3.06643858
C        2.51522050       2.51096547      -2.50496785
C        2.56603934       2.59630848      -1.10576084
C        1.75939212       1.78811079      -0.29608588
C        3.36048339       3.36329698      -3.35736529
N        3.31659277       3.29196989      -4.70045732
N        4.11987769       4.41674766      -5.21506933
C        4.02272277       4.86562672      -6.53753642
C        4.39134012       6.15548754      -6.94273818
C        4.26512528       6.57662863      -8.27430942
C        3.77157346       5.70663899      -9.24058566
C        3.40831295       4.41685523      -8.87254114
C        3.53535354       4.00965669      -7.53917130
C        4.54773710       5.27339182      -4.10435233
H        4.02395543       6.23633895      -4.08704450
C        4.22931818       4.47319182      -2.86257126
H        3.75085255       5.10401022      -2.10601862
C        5.58121626       4.01665181      -2.35658964
O        5.70647393       3.40175338      -1.29763963
N        6.58454613       4.53772038      -3.14871036
C        7.99096117       4.32467960      -2.94541501
C        8.48129114       3.47418394      -1.93739747
C        9.85505884       3.28177333      -1.72617177
C       10.77632767       3.92803254      -2.53693407
Br      12.62701309       3.68206380      -2.25006469
C       10.33281404       4.74710536      -3.56527661
C        8.95656350       4.93193867      -3.76931334
C        6.04838996       5.46521217      -4.02107607
O        6.63167222       6.40610676      -4.56054642
H        0.12436246       0.07793359      -2.74057901
H        1.55084554       1.49875520      -4.14926588
H        3.24741765       3.28752307      -0.61940150
H        1.83524506       1.87669315       0.78285160
H        4.77459407       6.87010955      -6.22365142
H        4.55293182       7.58787858      -8.54368534
H        3.67016266       6.03114303     -10.27056201
H        3.02269946       3.71937387      -9.60852483
H        3.24778784       2.99762677      -7.26410913
H        7.81691603       2.92167909      -1.28048885
H       10.17953395       2.62075516      -0.92710601
H       11.03733835       5.24723250      -4.22399488
H        8.67301858       5.56019074      -4.60908154
C       -0.88208209      -0.88208209      -0.88208209
C       -2.22367485      -1.06053415      -0.56413146
C       -3.02344384      -1.87275550      -1.37553668
C       -2.50450030      -2.51407739      -2.51257614
C       -1.14876300      -2.31009697      -2.80924869
C       -0.33889934      -1.50315519      -2.00153426
C       -3.35793058      -3.35953455      -3.36368053
N       -4.66040508      -3.55854754      -3.09006736
N       -5.23785986      -4.26505958      -4.24877523
C       -6.61763693      -4.33249793      -4.47575105
C       -7.18056307      -4.57258503      -5.73641774
C       -8.56868437      -4.61734320      -5.93003576
C       -9.43234747      -4.43032074      -4.85612991
C       -8.90484628      -4.20184038      -3.59102267
C       -7.51725348      -4.15553621      -3.41139185
C       -4.24080985      -4.36516497      -5.31950644
H       -4.46646354      -3.71102150      -6.16985385
C       -2.93994337      -3.95822257      -4.66691532
H       -2.38164542      -3.26950776      -5.30972822
C       -2.17056172      -5.25480672      -4.52908927
O       -1.01477497      -5.28442923      -4.10666274
N       -2.88508540      -6.29234163      -5.09354984
C       -2.44451748      -7.65852730      -5.15801100
C       -1.24433563      -8.08702881      -4.56150811
C       -0.80437402      -9.41702670      -4.64160322
C       -1.57062949     -10.35951222      -5.31115258
Br      -0.97795632     -12.14889639      -5.43228887
C       -2.77834627      -9.98471523      -5.88213450
C       -3.21036325      -8.65216955      -5.79528271
C       -3.97309430      -5.78456670      -5.77701720
O       -4.57529205      -6.30796353      -6.71506981
H       -2.66488049      -0.58176385       0.30376927
H       -4.07305278      -2.00601039      -1.11980346
H       -0.69431624      -2.78890944      -3.67111654
H        0.70796229      -1.37824883      -2.25880008
H       -6.54707586      -4.71747807      -6.60380111
H       -8.96314009      -4.79609357      -6.92526209
H      -10.50640384      -4.46143924      -5.00402462
H       -9.55809074      -4.05505044      -2.73745697
H       -7.11708907      -3.97615523      -2.41627944
H       -0.60650185      -7.40756658      -4.00501553
H        0.13535424      -9.69222273      -4.17052664
H       -3.40304539     -10.71126528      -6.39425507
H       -4.17810672      -8.42865054      -6.23553361
C       -0.88208209       0.88208209       0.88208209
C       -1.65999955       0.30750332       1.88083759
C       -2.46748193       1.12242027       2.68183382
C       -2.51067187       2.51538591       2.50509604
C       -1.71059878       3.06503934       1.49247054
C       -0.90270417       2.25822136       0.68266325
C       -3.35776000       3.36360287       3.35978279
N       -4.12594430       2.84673991       4.33633577
N       -4.65719492       3.98441210       5.11008765
C       -5.20393257       3.83212463       6.38982871
C       -5.29319871       4.87714504       7.31922209
C       -5.83254387       4.68433520       8.59918425
C       -6.30710161       3.43327882       8.97841768
C       -6.24332857       2.37929611       8.07508465
C       -5.69901048       2.58358849       6.80158257
C       -4.05426896       5.23457875       4.63663354
H       -3.33874586       5.65643045       5.35216258
C       -3.35835284       4.85740733       3.34932109
H       -2.35698326       5.29850012       3.30539802
C       -4.22441902       5.46416229       2.26587641
O       -3.90542746       5.42270898       1.07773050
N       -5.26277646       6.17605678       2.83214363
C       -6.26540935       6.89757340       2.09807302
C       -6.32554431       6.87486317       0.69246506
C       -7.29246149       7.59547718      -0.02493473
C       -8.23945793       8.34731366       0.65452270
Br      -9.53639126       9.32874345      -0.30599313
C       -8.23632344       8.36702341       2.04184915
C       -7.26586032       7.64165535       2.75029985
C       -5.06473423       6.27401524       4.19592874
O       -5.50598437       7.13879219       4.95354884
H       -1.65441409      -0.76381091       2.05227188
H       -3.07243931       0.66424763       3.46217969
H       -1.71259641       4.13471561       1.30703020
H       -0.30572963       2.72031022      -0.09695324
H       -4.93004711       5.86760587       7.07070206
H       -5.87367094       5.51869929       9.29212552
H       -6.72186883       3.28101464       9.96898423
H       -6.60890947       1.39476395       8.34692474
H       -5.65502522       1.75063608       6.10386243
H       -5.62899744       6.29163990       0.09844662
H       -7.28785196       7.55013822      -1.11059505
H       -8.98100406       8.93376874       2.59379294
H       -7.33530994       7.67293415       3.83404678
C        0.88208209      -0.88208209       0.88208209
C        1.29887492      -2.12642036       0.42304518
C        2.10375995      -2.92918292       1.23879315
C        2.50775324      -2.50708085       2.51631973
C        2.07487376      -1.24474538       2.94848953
C        1.26575698      -0.43576922       2.14206259
C        3.36190743      -3.35696233       3.36227590
N        3.78571073      -4.56771158       2.95559767
N        4.77571564      -5.02948765       3.94649139
C        5.67370513      -6.07035993       3.68182086
C        6.88401162      -6.23738991       4.36816430
C        7.76767846      -7.28319615       4.06518872
C        7.45373733      -8.19864817       3.06641262
C        6.25532730      -8.06692491       2.37545712
C        5.38335375      -7.01624490       2.68458288
C        5.04309748      -3.96418080       4.91820298
H        6.03649480      -3.51755865       4.79328543
C        3.96350329      -2.93778858       4.66378939
H        4.38417080      -1.92680932       4.64990128
C        3.02908508      -3.07876314       5.84660950
O        2.06814770      -2.32717243       6.01054681
N        3.52361969      -4.01485704       6.73250014
C        2.90181617      -4.38548426       7.97375535
C        1.65410200      -3.86927899       8.36949157
C        1.05635122      -4.21593150       9.59072122
C        1.69100651      -5.10779649      10.44249128
Br       0.89682799      -5.56934108      12.09297250
C        2.90575286      -5.66690319      10.07253995
C        3.49476744      -5.31483122       8.84821686
C        4.80410432      -4.37317008       6.35740380
O        5.69352259      -4.82601349       7.07878932
H        1.01134584      -2.48959039      -0.55806116
H        2.42641857      -3.90150604       0.87094203
H        2.35055721      -0.87318502       3.93059999
H        0.94311380       0.53040629       2.51637910
H        7.17401936      -5.54468893       5.14964675
H        8.69971354      -7.37027550       4.61450671
H        8.13709568      -9.00655934       2.82821268
H        5.98733734      -8.76962481       1.59363601
H        4.44853714      -6.92433454       2.13665205
H        1.09301002      -3.18314446       7.74292948
H        0.09547546      -3.78057993       9.85133973
H        3.41015132      -6.38225084      10.71616358
H        4.43019926      -5.80966703       8.60242457
