162
Properties=species:S:1:pos:R:3 pbc="F F F"
C        1.79202809       1.79202809      -1.79202809
C        1.74362644       1.65787110      -3.17486734
C        2.55711041       2.46670245      -3.97525234
C        3.42560347       3.41783438      -3.41482429
C        3.45166826       3.53117528      -2.01733807
C        2.64292523       2.72474708      -1.20755105
C        4.27504145       4.26122816      -4.26643962
N        4.29194695       4.14635639      -5.60452275
O        5.17036285       5.14495453      -6.13647555
C        5.45009814       6.06522362      -5.08536940
H        4.86000266       6.97910002      -5.21624531
C        5.15149461       5.35892557      -3.79673967
H        4.69072293       6.03436235      -3.06885359
C        6.51848464       4.93459197      -3.29385845
O        6.66521161       4.29415685      -2.25403560
N        7.50052875       5.51272038      -4.07839252
C        8.91426780       5.36762856      -3.88655572
C        9.45636154       4.62139056      -2.82564879
C       10.84099787       4.47885229      -2.64982057
C       11.71800781       5.07466226      -3.54513921
C       11.22084577       5.80062592      -4.61783705
C        9.83525533       5.93676220      -4.78608175
C        6.92242725       6.38694103      -4.97962835
O        7.44403589       7.34427827      -5.54785299
H        1.08809274       0.93446949      -3.64823784
H        2.51497745       2.35364653      -5.05715642
H        4.11705810       4.24098440      -1.53506487
H        2.69654163       2.83419948      -0.12915886
H        8.82674581       4.12125125      -2.09671558
H       11.20989415       3.89435182      -1.81141283
H       11.88935996       6.26093465      -5.33989287
H        9.50419086       6.48675004      -5.66315171
C       13.13970549       4.93147274      -3.36661060
C       14.33037730       4.81155151      -3.21709288
Br      16.25559290       4.61764904      -2.97533538
C       -1.79202809      -1.79202809      -1.79202809
C       -1.44447196      -3.11997294      -2.01191998
C       -2.25540680      -3.91989017      -2.82376824
C       -3.41967435      -3.41373631      -3.42485148
C       -3.74521300      -2.07120310      -3.18376550
C       -2.93887816      -1.26185798      -2.37448722
C       -4.26290709      -4.26421299      -4.27558916
N       -3.95250228      -5.54223515      -4.54808866
O       -5.00000790      -6.10521567      -5.34656936
C       -6.10319272      -5.20521130      -5.29228713
H       -6.86677092      -5.58448435      -4.60409272
C       -5.55742779      -3.87122782      -4.87850424
H       -6.24170229      -3.35345603      -4.19878054
C       -5.46454788      -3.10046259      -6.18192458
O       -5.02477101      -1.95301715      -6.23561590
N       -6.08362647      -3.81839302      -7.18962216
C       -6.22371195      -3.39284266      -8.55189747
C       -5.75477995      -2.14641398      -9.00220696
C       -5.88974234      -1.74127242     -10.33865597
C       -6.49057121      -2.58591224     -11.26132582
C       -6.94602898      -3.83341442     -10.85986534
C       -6.80581475      -4.23018383      -9.52210070
C       -6.69464778      -4.93783115      -6.65651771
O       -7.63290330      -5.58250988      -7.12075397
H       -0.55275615      -3.55000436      -1.56803956
H       -1.97485496      -4.95804473      -2.99288071
H       -4.62681306      -1.62860416      -3.63769014
H       -3.21744563      -0.22474398      -2.21771036
H       -5.26603175      -1.44332976      -8.33535113
H       -5.51362769      -0.76615627     -10.63587484
H       -7.40402565      -4.51684058     -11.56932125
H       -7.14929291      -5.23103138      -9.27376832
C       -6.63192004      -2.17244148     -12.63342729
C       -6.75029969      -1.82615973     -13.78256227
Br      -6.94170957      -1.26625141     -15.64061634
C       -1.79202809       1.79202809       1.79202809
C       -2.10103261       3.08616920       1.38916307
C       -2.90621977       3.88861323       2.20423220
C       -3.41513393       3.41742253       3.42570568
C       -3.08754434       2.10770337       3.80493390
C       -2.28062235       1.29746442       2.99713659
C       -4.25964966       4.27025943       4.27280014
N       -4.55784396       5.53853460       3.94644753
O       -5.44163719       6.06915290       4.94100284
C       -5.90737044       4.97188729       5.72143342
H       -6.92733786       4.70319093       5.42481919
C       -4.92988689       3.85173646       5.52553649
H       -5.43779773       2.88345066       5.47269047
C       -4.07069281       3.90133144       6.77491080
O       -3.12784530       3.13191030       6.95364847
N       -4.61914450       4.79347094       7.67902621
C       -4.10222458       5.08076932       8.98545818
C       -2.96446285       4.43675520       9.50218283
C       -2.46146292       4.72938515      10.77882267
C       -3.08415035       5.68781947      11.56583946
C       -4.19646374       6.36109083      11.08175416
C       -4.69145156       6.06262897       9.80401875
C       -5.83474267       5.24956103       7.20469294
O       -6.77331043       5.71430816       7.84854857
H       -1.72719587       3.48963044       0.45397375
H       -3.14147509       4.90167735       1.88262796
H       -3.44384075       1.70213845       4.74712816
H       -2.04047375       0.29197643       3.32744980
H       -2.42421847       3.68564255       8.93485162
H       -1.58080472       4.20108163      11.13377245
H       -4.68887253       7.12685106      11.67446390
H       -5.54332817       6.64612628       9.46463816
C       -2.57122342       5.98941019      12.87715521
C       -2.14164711       6.24199243      13.97538215
Br      -1.44705856       6.65039653      15.75112223
C        1.79202809      -1.79202809       1.79202809
C        3.15347377      -1.89319236       1.52969875
C        3.95351569      -2.70579737       2.33975214
C        3.41415147      -3.42523516       3.41887551
C        2.03814026      -3.30235911       3.65968224
C        1.22859205      -2.49330407       2.85332725
C        4.26514819      -4.27543346       4.26212758
N        5.57826847      -4.43514358       4.02941405
O        6.12525318      -5.26839642       5.05814333
C        5.14961613      -5.35853392       6.09254110
H        5.42304413      -4.70439118       6.92791267
C        3.82950253      -4.99854651       5.47911081
H        3.21662448      -4.40893848       6.16837591
C        3.16594304      -6.34161305       5.23937896
O        2.05880064      -6.44166753       4.71293589
N        3.91222743      -7.34047340       5.83894081
C        3.58037184      -8.73553536       5.85254488
C        2.40623012      -9.23483711       5.26233365
C        2.09311390     -10.60241500       5.27414184
C        2.96039988     -11.50657357       5.87083582
C        4.14016899     -11.05479379       6.44434596
C        4.44522153      -9.68609562       6.42678213
C        4.94406412      -6.77813410       6.56679842
O        5.55505068      -7.26510636       7.51601011
H        3.60994733      -1.35565065       0.70520209
H        5.01826392      -2.78144928       2.12606720
H        1.57060918      -3.85001047       4.47248772
H        0.16593236      -2.42970482       3.06426278
H        1.69102321      -8.58371381       4.76997562
H        1.17109928     -10.93755859       4.80700094
H        4.84110868     -11.74737199       6.90170681
H        5.39872136      -9.39538387       6.85998738
C        2.64120407     -12.91066995       5.88591479
C        2.37387758     -14.08660068       5.89854343
Br       1.94163325     -15.98798120       5.91896287
C       -0.00445707       0.01189536      -1.78238275
H       -0.66409135       0.67374010      -2.43557963
H        0.65740317      -0.63156657      -2.45157240
C       -0.90989263      -0.90692880      -0.91072765
C        0.90977584       0.90977584      -0.90977584
C       -0.00465871       1.77757030       0.00794375
H       -0.66225468       2.44313916      -0.64384735
H        0.64322798       2.43503045       0.67728295
C       -1.78241447       0.00034974      -0.00472694
H       -2.45427497      -0.65498947       0.64260836
H       -2.43311707       0.67328779      -0.65473579
C       -0.91132561       0.90220522       0.91563759
C       -0.01476271      -0.02253852       1.78660255
H       -0.67934791      -0.69751639       2.42135241
H        0.63392994       0.61504881       2.47327442
C        0.01484550      -1.77751727      -0.01636693
H        0.67870853      -2.42144646      -0.68295456
H       -0.62264859      -2.45592969       0.64226336
C        1.78714474       0.01002794       0.00389507
H        2.44202412       0.67113390       0.66197326
H        2.45385902      -0.65136977      -0.64189061
C        0.91606151      -0.90478549       0.90901405
