133
Properties=species:S:1:pos:R:3 pbc="F F F"
C        0.00000000       0.00000000       0.00000000
C        0.88212407       0.88212407      -0.88212407
C        0.83372241       0.74796707      -2.26496332
C        1.64720639       1.55679842      -3.06534832
C        2.51569944       2.50793036      -2.50492026
C        2.54176424       2.62127125      -1.10743405
C        1.73302121       1.81484305      -0.29764702
C        3.36513742       3.35132414      -3.35653560
N        3.38204293       3.23645237      -4.69461873
O        4.26045882       4.23505051      -5.22657153
C        4.54019411       5.15531959      -4.17546538
H        3.95009863       6.06919600      -4.30634128
C        4.24159058       4.44902155      -2.88683565
H        3.78081891       5.12445832      -2.15894956
C        5.60858062       4.02468794      -2.38395442
O        5.75530759       3.38425283      -1.34413158
N        6.59062473       4.60281635      -3.16848849
C        8.00436377       4.45772454      -2.97665170
C        8.54645751       3.71148653      -1.91574476
C        9.93109385       3.56894827      -1.73991655
C       10.80810378       4.16475823      -2.63523519
Br      12.67298743       3.97693223      -2.40105383
C       10.31094175       4.89072189      -3.70793302
C        8.92535131       5.02685818      -3.87617772
C        6.01252323       5.47703701      -4.06972432
O        6.53413187       6.43437425      -4.63794896
H        0.17818871       0.02456546      -2.73833382
H        1.60507343       1.44374251      -4.14725240
H        3.20715407       3.33108037      -0.62516084
H        1.78663761       1.92429546       0.78074517
H        7.91684179       3.21134722      -1.18681156
H       10.29999012       2.98444780      -0.90150881
H       10.97945594       5.35103063      -4.42998885
H        8.59428683       5.57684602      -4.75324769
C       -0.88212407      -0.88212407      -0.88212407
C       -1.11774939      -2.20462610      -0.52427731
C       -1.92349111      -3.00665582      -1.33920619
C       -2.50560145      -2.50706543      -2.51588318
C       -2.25103944      -1.16919412      -2.85023598
C       -1.44421944      -0.35899857      -2.04229327
C       -3.34987829      -3.35977717      -3.36334170
N       -3.57920395      -4.65273486      -3.08117521
O       -4.48289988      -5.17931730      -4.05986368
C       -5.02893362      -4.07164009      -4.77040537
H       -6.04523346      -3.86126169      -4.41914076
C       -4.09215783      -2.91858037      -4.56670958
H       -4.63787123      -1.97688181      -4.44947376
C       -3.28786950      -2.87695427      -5.85239921
O       -2.38738558      -2.05959548      -6.03671093
N       -3.83750018      -3.75334801      -6.77108138
C       -3.36727991      -3.96172977      -8.10973033
C       -2.28191048      -3.24655268      -8.64522565
C       -1.82403679      -3.46213775      -9.95378412
C       -2.43975750      -4.41296332     -10.75537638
Br      -1.82767145      -4.70497657     -12.51832546
C       -3.49993169      -5.15482872     -10.25483626
C       -3.95000736      -4.93311402      -8.94526583
C       -5.01041597      -4.28260680      -6.26626179
O       -5.95603108      -4.76075770      -6.88966630
H       -0.68602926      -2.63045080       0.37539207
H       -2.10104055      -4.04189171      -1.05313607
H       -2.66565219      -0.74019470      -3.75754840
H       -1.26185046       0.66926210      -2.33759954
H       -1.74941644      -2.49698745      -8.06859667
H       -0.98320198      -2.88071901     -10.32202573
H       -3.98518370      -5.91581581     -10.85947590
H       -4.76046216      -5.56768554      -8.59623284
C       -0.88212407       0.88212407       0.88212407
C       -1.65695549       0.30690260       1.88279472
C       -2.46465690       1.12104146       2.68365478
C       -2.51221045       2.51321884       2.50312077
C       -1.71882691       3.06479132       1.48685131
C       -0.90875777       2.25815846       0.67859506
C       -3.36480606       3.35732374       3.35086736
N       -4.15858914       2.84760276       4.30692212
O       -4.80569205       3.92973374       4.98665507
C       -4.13927040       5.12906283       4.60264585
H       -3.46541348       5.45916540       5.40105703
C       -3.42167434       4.83700726       3.31876617
H       -2.44636265       5.33295514       3.28490900
C       -4.32634669       5.43374912       2.25712717
O       -4.06709069       5.35955721       1.05704410
N       -5.32872853       6.16990989       2.86329115
C       -6.35216490       6.90640840       2.18016671
C       -6.41824007       6.97771212       0.77773662
C       -7.42745164       7.69483211       0.11767492
C       -8.40523402       8.35046338       0.85239980
Br      -9.76460606       9.31864189      -0.03227446
C       -8.38667568       8.28480183       2.23811916
C       -7.37457998       7.56468891       2.88911832
C       -5.10506982       6.22810319       4.22611156
O       -5.51221179       7.06858693       5.02565637
H       -1.65082765      -0.76433940       2.05459975
H       -3.07020846       0.66242721       3.46343265
H       -1.73193764       4.13396465       1.29749301
H       -0.31511897       2.71926341      -0.10419449
H       -5.69170152       6.47930995       0.14398910
H       -7.43238424       7.72211235      -0.96854985
H       -9.15203094       8.77652108       2.83192339
H       -7.43124820       7.51953627       3.97359607
C        0.88212407      -0.88212407       0.88212407
C        1.91763285      -1.61517575       0.31384420
C        2.71833077      -2.42322579       1.12779656
C        2.50310091      -2.51247289       2.51297626
C        1.45212338      -1.76065691       3.05768924
C        0.64377681      -0.95063221       2.25110226
C        3.35107092      -3.36496825       3.35695799
N        4.34080113      -4.11985799       2.85245490
O        5.00923542      -4.77769153       3.93515391
C        4.57667011      -4.15359858       5.14071039
H        5.34804196      -3.46829585       5.50929810
C        3.28215110      -3.46200480       4.83329188
H        3.20950834      -2.50144142       5.35327703
C        2.22985102      -4.40945063       5.37792133
O        1.02562040      -4.17950600       5.27856560
N        2.84318907      -5.41501829       6.10372221
C        2.16868013      -6.47505391       6.79500597
C        0.76712813      -6.57933257       6.82722811
C        0.11578978      -7.62403973       7.50012915
C        0.85903274      -8.59954961       8.14951485
Br      -0.01395267     -10.00667846       9.05824769
C        2.24500375      -8.54333827       8.12125464
C        2.88728664      -7.49590423       7.44519633
C        4.19760869      -5.15773756       6.20393832
O        4.98565022      -5.56623979       7.05456507
H        2.11692333      -1.57609236      -0.75192770
H        3.52557208      -2.99594312       0.67455314
H        1.23553119      -1.80711831       4.12074579
H       -0.16622164      -0.38996379       2.70644575
H        0.12740315      -5.85645971       6.33113770
H       -0.97026109      -7.65785034       7.49835748
H        2.84601917      -9.30585857       8.60859767
H        3.97369420      -7.52322160       7.42746473
