169
Properties=species:S:1:pos:R:3 pbc="F F F"
C        0.00000000       0.00000000       0.00000000
C        0.87922528       0.87922528      -0.87922528
C        0.72695454       0.87898904      -2.25793293
N        1.48502664       1.62625416      -3.09448662
C        2.43627065       2.40616034      -2.51956196
C        2.64831024       2.48456841      -1.14700184
C        1.85528070       1.69285470      -0.31026434
C        3.71468912       3.38338147      -0.64483075
O        4.66339427       3.65072303      -1.37473035
N        3.51424316       3.88469134       0.62970823
N        4.42163102       4.74425537       1.18598794
C        4.06255071       5.31443546       2.29156430
C        4.83909134       6.29317564       3.03812123
C        6.11910486       6.76079529       2.81664154
C        6.58977186       7.72752829       3.70215581
Br       8.33989240       8.41195585       3.48850667
C        5.78580932       8.20641166       4.75580917
C        4.48571959       7.71768662       4.95020525
C        4.02602815       6.74593444       4.08172703
N        2.78781571       6.08013880       4.07005750
C        1.68687067       6.31994616       4.97037107
C        0.62849389       7.27972586       4.46143091
C       -0.47887646       7.54344168       5.28637114
C       -1.51171104       8.38015641       4.85760661
C       -1.45510643       8.96698886       3.59685339
C       -0.36350329       8.72280901       2.76846851
C        0.67207111       7.88819377       3.19740737
C        2.73913657       5.16351977       3.03788879
O        1.86957739       4.38241266       2.70728675
H       -0.02098109       0.26177127      -2.74794459
H        3.03392549       2.98932370      -3.21733613
H        2.00374724       1.68361289       0.76517929
H        2.62847919       3.73779040       1.11746942
H        6.71687011       6.38491837       1.99245308
H        6.17313731       8.96652613       5.43237448
H        3.88035255       8.10252862       5.76348082
H        2.07314059       6.67478813       5.93253258
H        1.19776428       5.35421014       5.14862656
H       -0.55239525       7.08397412       6.27032638
H       -2.36576415       8.56582573       5.50400092
H       -2.26311850       9.60954284       3.25691374
H       -0.32065538       9.17502934       1.78041789
H        1.49973064       7.71744142       2.51471988
C       -0.87922528      -0.87922528      -0.87922528
C       -2.25856466      -0.73294805      -0.87236381
N       -3.09506992      -1.49140784      -1.61928965
C       -2.51942958      -2.43676274      -2.40580062
C       -1.14631869      -2.64249628      -2.49106552
C       -0.30958773      -1.84927116      -1.69954084
C       -0.64344912      -3.70278561      -3.39666661
O       -1.37039273      -4.65348747      -3.66496744
N        0.62802099      -3.49463788      -3.90260938
N        1.18448096      -4.39587389      -4.76850552
C        2.28600624      -4.02953093      -5.34189718
C        3.03165611      -4.79858002      -6.32722184
C        2.81368588      -6.07750896      -6.79943553
C        3.69701956      -6.54013842      -7.77202548
Br       3.48797132      -8.28819369      -8.46311920
C        4.74509506      -5.72954208      -8.25196480
C        4.93598705      -4.43074626      -7.75844175
C        4.06975837      -3.97903986      -6.78095408
N        4.05562554      -2.74378134      -6.10974122
C        4.95011815      -1.63790838      -6.34865554
C        4.43243982      -0.57761090      -7.30161775
C        5.25142885       0.53446320      -7.56408613
C        4.81456977       1.56903494      -8.39444346
C        3.55153567       1.50949260      -8.97605731
C        2.72894897       0.41325495      -8.73304113
C        3.16598512      -0.62404673      -7.90479591
C        3.02724780      -2.70355215      -5.18846320
O        2.69628405      -1.83882430      -4.40216303
H       -2.74912093       0.01017491      -0.24978874
H       -3.21713892      -3.03491522      -2.98853118
H        0.76651804      -1.99310275      -1.69559612
H        1.11257976      -2.60740698      -3.75397296
H        1.99373154      -6.68046944      -6.42259749
H        5.42002087      -6.11063560      -9.01667422
H        5.74495688      -3.82019276      -8.14416446
H        5.91239085      -2.01845615      -6.70933084
H        5.13045014      -1.15221414      -5.38158386
H        6.23704368       0.61026782      -7.10856399
H        5.45645104       2.42668330      -8.57919500
H        3.20531578       2.31879208      -9.61361847
H        1.73913765       0.36807149      -9.18116522
H        2.48763238      -1.45539515      -7.73468940
C       -0.87922528       0.87922528       0.87922528
C       -0.77061007       0.83201540       2.26125103
N       -1.53148897       1.57689052       3.09738793
C       -2.43981963       2.40364186       2.51853145
C       -2.60594895       2.53064586       1.14328568
C       -1.81150008       1.74026773       0.30663192
C       -3.62796188       3.47759672       0.63734274
O       -4.59060354       3.75228890       1.34595521
N       -3.37216193       4.01108109      -0.61401676
N       -4.23483067       4.91545930      -1.17039153
C       -3.82377427       5.50757420      -2.24592660
C       -4.54607337       6.53270478      -2.98463239
C       -5.81753588       7.03348569      -2.78776295
C       -6.23023966       8.04121988      -3.65631520
Br      -7.96447667       8.77367167      -3.47480676
C       -5.37916149       8.52650112      -4.66925080
C       -4.08914224       8.00317337      -4.83911466
C       -3.68701941       6.99129221      -3.98807606
N       -2.47073542       6.28671452      -3.95955292
C       -1.33511225       6.51909018      -4.81775666
C       -0.26446003       7.42898213      -4.24665332
C        0.87593531       7.68273503      -5.02860564
C        1.91983563       8.47293907      -4.54226468
C        1.84145517       9.02242903      -3.26594482
C        0.71730065       8.78759037      -2.47945251
C       -0.32926713       7.99957558      -2.96598520
C       -2.48270632       5.33787492      -2.95581369
O       -1.64830941       4.51997402      -2.62358014
H       -0.05773619       0.17680730       2.75419127
H       -3.04107669       2.98375696       3.21575167
H       -1.92617330       1.76861300      -0.77260546
H       -2.47635683       3.85129303      -1.07884969
H       -6.45222525       6.65162388      -1.99451373
H       -5.72151923       9.31879590      -5.33302618
H       -3.44692854       8.39341796      -5.62094615
H       -1.67979750       6.91520586      -5.77960721
H       -0.87039215       5.54430683      -5.01135113
H        0.96637565       7.25148706      -6.02385892
H        2.79913778       8.65125254      -5.15605409
H        2.65761414       9.62847032      -2.88134558
H        0.65715068       9.21050512      -1.47939837
H       -1.18289007       7.83422182      -2.31465972
C        0.87922528      -0.87922528       0.87922528
C        2.24956445      -0.67335799       0.94095407
N        3.08641537      -1.42792682       1.69142522
C        2.52060521      -2.43179527       2.40959247
C        1.15578027      -2.70027270       2.42382753
C        0.31906084      -1.90900311       1.63033578
C        0.66264375      -3.82108396       3.25917362
O        1.41949350      -4.75064682       3.51870732
N       -0.63758724      -3.69108751       3.71572599
N       -1.18967413      -4.65367819       4.51589438
C       -2.33034549      -4.36150098       5.05426638
C       -3.08237682      -5.20572368       5.97079889
C       -2.82749691      -6.49405642       6.39669910
C       -3.73022422      -7.03782893       7.30753963
Br      -3.47252589      -8.80463678       7.93123070
C       -4.83356701      -6.29573958       7.77423924
C       -5.06139806      -4.98544754       7.32915148
C       -4.17503780      -4.45309435       6.41217901
N       -4.18770310      -3.18934116       5.79625896
C       -5.14068247      -2.13504021       6.04208803
C       -4.71302756      -1.09747225       7.06234415
C       -5.59194788      -0.03478485       7.33535711
C       -5.23849854       0.97915157       8.22848886
C       -4.00036030       0.94801636       8.86340570
C       -3.11940420      -0.09958817       8.61065324
C       -3.47299824      -1.11635217       7.71950358
C       -3.12336479      -3.06319639       4.92493595
O       -2.79812314      -2.15037328       4.19245316
H        2.73250549       0.11759951       0.37382879
H        3.21878610      -3.02495233       2.99684690
H       -0.74828069      -2.09884679       1.57161474
H       -1.15482826      -2.81980575       3.58382268
H       -1.96565429      -7.04342046       6.03156923
H       -5.52299659      -6.73975220       8.49053335
H       -5.91300403      -4.42843198       7.70397239
H       -6.09947439      -2.57267998       6.34219056
H       -5.30082283      -1.61443088       5.08973980
H       -6.55938790       0.01886960       6.83951000
H       -5.92581670       1.79906637       8.42094373
H       -3.71887911       1.74190863       9.55029835
H       -2.14883856      -0.12216612       9.10062852
H       -2.75109939      -1.90910444       7.54444713
