181
Properties=species:S:1:pos:R:3 pbc="F F F"
C        0.00000000       0.00000000       0.00000000
C        0.87969489       0.87969489      -0.87969489
C        2.03337250       1.45609499      -0.37129156
N        2.85206913       2.24812996      -1.09916926
C        2.49628205       2.46419256      -2.39283698
C        1.35733839       1.93009344      -2.99287556
C        0.53281212       1.11716169      -2.20921657
C        1.12061714       2.23954594      -4.42677807
O        1.71479716       3.18600348      -4.94455817
N        0.24977343       1.39701239      -5.11597974
N       -0.00098440       1.54870418      -6.45414710
C        1.01939406       1.51726683      -7.25906216
C        0.94665741       1.76080146      -8.69657899
C       -0.15979528       1.96670899      -9.49863897
C        0.07502766       2.10008872     -10.86564155
Br      -1.38756071       2.32235783     -12.04426461
C        1.38038166       2.04921582     -11.38987428
C        2.48373620       1.84521933     -10.55192116
C        2.24915268       1.68537449      -9.19929950
N        3.15824201       1.37823882      -8.17583165
C        4.54496484       1.00354994      -8.35867747
C        5.51846380       1.98480160      -7.68999285
C        6.97789991       1.59102907      -7.79282203
C        7.95599152       2.58932274      -7.91897414
C        9.31263486       2.25877699      -7.97467630
C        9.71198959       0.92685848      -7.89805697
C        8.75577335      -0.07329216      -7.75167261
C        7.40050611       0.25734941      -7.68640878
C        2.48964326       1.16148926      -6.97765924
O        2.92306732       0.65998834      -5.95852182
H        2.34497139       1.29840337       0.65744068
H        3.18854115       3.08991103      -2.95317668
H       -0.37244805       0.67019274      -2.60113751
H       -0.48467103       0.91537724      -4.61415735
H       -1.15834844       1.99416310      -9.07649430
H        1.54256457       2.15328683     -12.46155894
H        3.48092861       1.80025847     -10.97461701
H        4.78264227       0.89918655      -9.42145768
H        4.64698908       0.00828154      -7.91191941
H        5.27385180       2.10546870      -6.62746535
H        5.37608841       2.96980719      -8.15511044
H        7.66993441       3.63823409      -7.96481290
H       10.05963029       3.04279946      -8.06806241
H       10.76655056       0.66876605      -7.93768060
H        9.06270183      -1.11322364      -7.67384004
H        6.68927649      -0.54999558      -7.53536448
C       -0.87969489      -0.87969489      -0.87969489
C       -0.44230710      -1.28843427      -2.13001768
N       -1.17680091      -2.06484926      -2.95771819
C       -2.39940836      -2.44867818      -2.50522505
C       -2.92562618      -2.08886262      -1.26581858
C       -2.13876427      -1.28349265      -0.43693346
C       -4.26905515      -2.61191431      -0.90597170
O       -5.00238285      -3.04948507      -1.79349088
N       -4.60382447      -2.60616076       0.44721967
N       -5.79036881      -3.11581962       0.90432155
C       -6.05699898      -4.35522012       0.61649605
C       -7.31327299      -5.02665126       0.93588640
C       -8.39775726      -4.56578274       1.65798732
C       -9.43917441      -5.46783775       1.86625423
Br     -10.93505021      -4.94110424       2.89709273
C       -9.38879932      -6.77355755       1.34288511
C       -8.27901334      -7.21133180       0.60946845
C       -7.23365547      -6.32606729       0.42589609
N       -5.98734391      -6.54504378      -0.17992480
C       -5.46886664      -7.82610992      -0.61221569
C       -5.19432023      -7.87683992      -2.12209810
C       -4.58063660      -9.17468386      -2.60643055
C       -4.92032871      -9.66883056      -3.87512914
C       -4.33934090     -10.84144738      -4.36529988
C       -3.40551057     -11.53332000      -3.59807448
C       -3.04228162     -11.04511816      -2.34675403
C       -3.61558651      -9.86816158      -1.86051620
C       -5.16808484      -5.43371695      -0.02698996
O       -3.96980843      -5.35514564      -0.21662342
H        0.53126619      -1.00051775      -2.51668251
H       -2.95377209      -3.08850533      -3.18935144
H       -2.47960458      -0.95712008       0.53784245
H       -4.18845822      -1.92041114       1.06400580
H       -8.41375960      -3.55881474       2.06026538
H      -10.21203652      -7.46418866       1.51881485
H       -8.25406029      -8.22322609       0.22148229
H       -6.14412142      -8.63665609      -0.32250900
H       -4.53745647      -7.97505763      -0.05467594
H       -4.53063469      -7.05588027      -2.42027090
H       -6.14701541      -7.71072263      -2.64326800
H       -5.63549175      -9.13753292      -4.49995674
H       -4.60861931     -11.21020537      -5.35166748
H       -2.95044386     -12.44314293      -3.97941042
H       -2.30100912     -11.57150329      -1.75080582
H       -3.27771276      -9.50190262      -0.89503001
C       -0.87969489       0.87969489       0.87969489
C       -2.20910286       1.09836639       0.55328981
N       -3.03852857       1.87063511       1.29020466
C       -2.50810544       2.44175564       2.40345051
C       -1.18549866       2.28189800       2.81291072
C       -0.35605146       1.47787890       2.02526002
C       -0.76427908       2.95244864       4.07021344
O       -1.45398014       3.86544189       4.52593677
N        0.39004723       2.46875643       4.68405636
N        0.84329195       2.96914525       5.87601358
C        0.02565424       2.93523145       6.88614584
C        0.30614544       3.51317506       8.19700824
C        1.46445799       4.10066764       8.66934304
C        1.46352765       4.49995231      10.00433327
Br       3.02820152       5.25620212      10.75106113
C        0.32602552       4.32970698      10.81579030
C       -0.83644188       3.73633013      10.30810469
C       -0.82695764       3.31504458       8.99182444
N       -1.81456819       2.61645401       8.28129028
C       -3.01849991       2.04301152       8.84568081
C       -4.29907581       2.64484108       8.24934137
C       -5.58292385       2.02118410       8.75764306
C       -6.72405716       2.82191244       8.91831881
C       -7.93308713       2.26687229       9.34612873
C       -8.02128822       0.90287161       9.61274522
C       -6.90437996       0.09163272       9.43814112
C       -5.69846391       0.64430139       9.00149899
C       -1.34872162       2.25715776       7.02291237
O       -1.83636806       1.46236249       6.24284692
H       -2.66154495       0.65236529      -0.32797617
H       -3.20952888       3.04001227       2.98208771
H        0.68456921       1.30975311       2.27369831
H        1.10937961       2.02945944       4.12478373
H        2.33332881       4.21507666       8.03056111
H        0.34633626       4.64633408      11.85741252
H       -1.69986944       3.60558117      10.95035349
H       -3.02383296       2.14447943       9.93497411
H       -2.96925084       0.97036829       8.62757090
H       -4.29083626       2.56029181       7.15565778
H       -4.30400468       3.71942205       8.47757931
H       -6.68445721       3.88745437       8.70106982
H       -8.81013783       2.89835503       9.46199929
H       -8.96152278       0.46947594       9.94199850
H       -6.97193411      -0.97659818       9.62798230
H       -4.86090719      -0.02941446       8.84315267
C        0.87969489      -0.87969489       0.87969489
C        0.45140027      -1.27048593       2.13887285
N        1.18644712      -2.04591024       2.96701099
C        2.40001848      -2.44755327       2.50573983
C        2.91673227      -2.10651474       1.25706037
C        2.12961687      -1.30159138       0.42798212
C        4.25062927      -2.64767650       0.88863538
O        4.98873398      -3.08364968       1.77297515
N        4.57095446      -2.65981675      -0.46800565
N        5.74708648      -3.18693869      -0.93215830
C        6.00365327      -4.42600496      -0.63393518
C        7.24926814      -5.11416966      -0.95939994
C        8.33078475      -4.67258602      -1.69781809
C        9.36031555      -5.58787597      -1.90743360
Br      10.85057314      -5.08809887      -2.95961028
C        9.30172964      -6.88737332      -1.36963119
C        8.19527944      -7.30547510      -0.61987785
C        7.16136674      -6.40719283      -0.43473291
N        5.91935671      -6.60641170       0.18654408
C        5.39200861      -7.87721706       0.63796657
C        5.13309898      -7.90903455       2.15112473
C        4.51093419      -9.19504745       2.65576937
C        4.85892460      -9.67934963       3.92601418
C        4.27083902     -10.84043737       4.43481177
C        3.32159316     -11.53036377       3.68494812
C        2.95019148     -11.05157031       2.43239201
C        3.53068297      -9.88601956       1.92756176
C        5.11031090      -5.48806951       0.03041134
O        3.91502854      -5.39469022       0.23185873
H       -0.51488343      -0.96810324       2.53271426
H        2.95486549      -3.08599812       3.19076525
H        2.46344955      -0.98921089      -0.55377824
H        4.15629493      -1.97622834      -1.08765970
H        8.35313621      -3.67015830      -2.11098554
H       10.11568733      -7.58858864      -1.54686563
H        8.16377338      -8.31288404      -0.22085333
H        6.05551576      -8.69795531       0.34981544
H        4.45316749      -8.02208777       0.09193478
H        4.48136043      -7.07791812       2.44750730
H        6.09301549      -7.74760848       2.66038208
H        5.58630694      -9.14914853       4.53752593
H        4.54673162     -11.20159872       5.42216181
H        2.86103070     -12.43118485       4.08078167
H        2.19706335     -11.57627482       1.84998006
H        3.18639960      -9.52640270       0.96184309
