162
Properties=species:S:1:pos:R:3 pbc="F F F"
C       12.77500262       3.01306980      -2.42062758
C       12.01159657       4.33095644      -2.41134169
N       10.56705800       4.18719826      -2.45055421
C        9.88355671       3.30427011      -3.27151907
O       10.31271719       2.50116379      -4.07220983
C        8.39075704       3.57136049      -3.01425195
N        7.49639963       2.73606753      -3.44350971
N        6.17913839       2.97148264      -3.22941129
C        5.29989087       1.90230053      -3.11739712
O        5.61057387       0.71609832      -3.12806134
C        3.88541049       2.26176387      -2.86528767
C        3.30159410       3.41226007      -3.38034179
N        2.03029611       3.79806954      -3.11168416
C        1.30149616       2.97398345      -2.31881791
C        1.78843997       1.78843997      -1.78843997
C        3.10133902       1.42416721      -2.06665663
C        8.33668742       4.78006251      -2.18106289
C        7.28377062       5.54729200      -1.70955395
C        7.58706618       6.65809567      -0.91996341
Br       6.18218870       7.75135265      -0.27757083
C        8.91214201       6.98126389      -0.59657590
C        9.96509604       6.19313566      -1.06906473
C        9.66683275       5.09579399      -1.86213807
H       13.83593341       3.19191932      -2.21739903
H       12.71106796       2.51909254      -3.39447194
H       12.38982424       2.32514921      -1.66121026
H       12.31277710       4.94286295      -3.26832566
H       12.29415741       4.86069284      -1.49612122
H        5.85937398       3.92526853      -3.20260219
H        3.83122701       4.07942641      -4.05387871
H        0.28587294       3.30796211      -2.12369679
H        3.52225114       0.50551798      -1.66310230
H        6.24915885       5.32598342      -1.92394217
H        9.13011300       7.84738306       0.02495348
H       10.98387214       6.45908687      -0.80710599
C        0.15300827      -6.99691930     -11.36478897
C       -1.17285396      -6.24806866     -11.33297208
N       -1.49871803      -5.66058934     -10.04550311
C       -1.33863266      -6.29627404      -8.82443919
O       -0.90621880      -7.40194718      -8.57792483
C       -1.88684634      -5.31652358      -7.77299956
N       -1.64940536      -5.51324432      -6.51332720
N       -2.13885785      -4.65960056      -5.58157391
C       -1.45263794      -4.47925796      -4.38769262
O       -0.37192209      -4.98245325      -4.10035819
C       -2.05736543      -3.51238392      -3.44271267
C       -3.43042171      -3.33473905      -3.32903520
N       -4.00717056      -2.41190487      -2.52097437
C       -3.16916206      -1.65769656      -1.76743890
C       -1.78843997      -1.78843997      -1.78843997
C       -1.22178229      -2.73198713      -2.63839344
C       -2.53284524      -4.23552240      -8.52944518
C       -3.27121151      -3.12993030      -8.13947475
C       -3.74927412      -2.27847527      -9.13737588
Br      -4.78662816      -0.77157507      -8.65290896
C       -3.47867574      -2.51992876     -10.49137730
C       -2.72324446      -3.63255464     -10.87149733
C       -2.25656331      -4.48524498      -9.88295652
H        0.41102277      -7.26057451     -12.39570001
H        0.10085533      -7.92967067     -10.79581711
H        0.96349697      -6.38805446     -10.95162622
H       -1.98935705      -6.92263738     -11.61197127
H       -1.11273763      -5.45414997     -12.08408388
H       -3.02019726      -4.20762153      -5.75942592
H       -4.14128720      -3.94412277      -3.87912215
H       -3.66044665      -0.92915620      -1.12792899
H       -0.14237665      -2.85951928      -2.68897549
H       -3.49098310      -2.90028857      -7.10781277
H       -3.85422882      -1.84261805     -11.25569571
H       -2.52372651      -3.80185087     -11.92448762
C       -0.66581736       5.32042399      12.22245864
C       -2.05857530       4.79479977      11.90051963
N       -2.25804808       4.44031956      10.50644284
C       -1.82960491       5.20020544       9.42953554
O       -1.22168303       6.24924715       9.41516063
C       -2.33505781       4.46441516       8.17689651
N       -1.88317295       4.78771366       7.00509027
N       -2.33272225       4.15051569       5.89679439
C       -1.50150061       4.02700072       4.79108719
O       -0.33240986       4.39202756       4.73029611
C       -2.07691964       3.29836844       3.63717395
C       -3.42755762       3.35017720       3.31646113
N       -3.99074638       2.64221354       2.30708988
C       -3.15458302       1.87505769       1.56465680
C       -1.78843997       1.78843997       1.78843997
C       -1.23881297       2.51267725       2.84067264
C       -3.22709596       3.40466090       8.66605596
C       -4.03693782       2.48707563       8.01660311
C       -4.77112926       1.59429811       8.79969789
Br      -5.91247937       0.34215835       7.95647447
C       -4.68188361       1.60959931      10.19849888
C       -3.85288696       2.53276040      10.84164908
C       -3.13111278       3.42725223      10.06639980
H       -0.53637399       5.40225531      13.30662245
H       -0.50585077       6.31726520      11.80151648
H        0.11045184       4.65466151      11.83197404
H       -2.81143203       5.54362047      12.16891321
H       -2.22027492       3.90852204      12.52217453
H       -3.28298790       3.81957145       5.88468535
H       -4.12721520       3.98299818       3.85431876
H       -3.63417269       1.32187673       0.76148242
H       -0.17268798       2.46522491       3.05295853
H       -4.12430599       2.43278241       6.94199604
H       -5.25675463       0.90260279      10.79318516
H       -3.79662907       2.52824091      11.92519501
C       12.78275993      -2.61459493       2.81134514
C       12.07350775      -3.95939871       2.72098824
N       10.62394129      -3.87289140       2.70797779
C        9.87471133      -3.05034494       3.53428961
O       10.24040042      -2.26396658       4.38172381
C        8.40474723      -3.36406947       3.20755277
N        7.46192701      -2.58153965       3.63251021
N        6.16430945      -2.85862139       3.35710148
C        5.24801899      -1.82036765       3.25120187
O        5.51044872      -0.62448382       3.31980098
C        3.85974447      -2.22352213       2.92919543
C        3.30298956      -3.41523464       3.37597175
N        2.05936499      -3.83853638       3.04214844
C        1.32922000      -3.01203835       2.25303916
C        1.78843997      -1.78843997       1.78843997
C        3.07409469      -1.38542627       2.13264190
C        8.43101684      -4.53972109       2.32707489
C        7.42845741      -5.32737208       1.78478708
C        7.80596022      -6.39329528       0.96586976
Br       6.47156053      -7.51316334       0.22638832
C        9.15432262      -6.65217651       0.68348267
C       10.15604709      -5.84369657       1.22755278
C        9.78397265      -4.79116055       2.04963161
H       13.85700644      -2.74431926       2.64392605
H       12.66180664      -2.16271802       3.80010779
H       12.39986184      -1.91219533       2.06412654
H       12.36575546      -4.59302210       3.56518814
H       12.41192851      -4.44092646       1.79811652
H        5.88415145      -3.82214979       3.28094346
H        3.83258906      -4.08793609       4.04400698
H        0.33598443      -3.37670843       2.00483899
H        3.47317233      -0.43591190       1.78178720
H        6.37836556      -5.15468897       1.96602991
H        9.43040843      -7.48377797       0.03835618
H       11.19393674      -6.05966223       0.99646604
C       -0.00445707       0.01189536      -1.78238275
H       -0.66409135       0.67374010      -2.43557963
H        0.65740317      -0.63156657      -2.45157240
C       -0.90989263      -0.90692880      -0.91072765
C        0.90977584       0.90977584      -0.90977584
C       -0.00465871       1.77757030       0.00794375
H       -0.66225468       2.44313916      -0.64384735
H        0.64322798       2.43503045       0.67728295
C       -1.78241447       0.00034974      -0.00472694
H       -2.45427497      -0.65498947       0.64260836
H       -2.43311707       0.67328779      -0.65473579
C       -0.91132561       0.90220522       0.91563759
C       -0.01476271      -0.02253852       1.78660255
H       -0.67934791      -0.69751639       2.42135241
H        0.63392994       0.61504881       2.47327442
C        0.01484550      -1.77751727      -0.01636693
H        0.67870853      -2.42144646      -0.68295456
H       -0.62264859      -2.45592969       0.64226336
C        1.78714474       0.01002794       0.00389507
H        2.44202412       0.67113390       0.66197326
H        2.45385902      -0.65136977      -0.64189061
C        0.91606151      -0.90478549       0.90901405
