149
Properties=species:S:1:pos:R:3 pbc="F F F"
C        0.00000000       0.00000000       0.00000000
C       11.86509860       2.10316577      -1.51072355
C       11.10169254       3.42105242      -1.50143767
N        9.65715398       3.27729424      -1.54065019
C        8.97365269       2.39436609      -2.36161504
O        9.40281316       1.59125977      -3.16230580
C        7.48085301       2.66145646      -2.10434793
N        6.58649561       1.82616351      -2.53360569
N        5.26923436       2.06157862      -2.31950727
C        4.38998684       0.99239650      -2.20749310
O        4.70066985      -0.19380571      -2.21815731
C        2.97550646       1.35185985      -1.95538364
C        2.39169007       2.50235604      -2.47043776
N        1.12039209       2.88816551      -2.20178013
C        0.39159213       2.06407943      -1.40891388
C        0.87853594       0.87853594      -0.87853594
C        2.19143499       0.51426319      -1.15675261
C        7.42678340       3.87015848      -1.27115886
C        6.37386659       4.63738798      -0.79964992
C        6.67716216       5.74819164      -0.01005939
C        8.00223798       6.07135986       0.31332812
C        9.05519202       5.28323164      -0.15916070
C        8.75692873       4.18588996      -0.95223405
H       12.92602938       2.28201529      -1.30749500
H       11.80116394       1.60918852      -2.48456792
H       11.47992021       1.41524519      -0.75130623
H       11.40287307       4.03295892      -2.35842163
H       11.38425339       3.95078882      -0.58621720
H        4.94946996       3.01536451      -2.29269817
H        2.92132298       3.16952239      -3.14397468
H       -0.62403108       2.39805809      -1.21379276
H        2.61234712      -0.40438605      -0.75319828
H        5.33925482       4.41607939      -1.01403815
H        8.22020897       6.93747904       0.93485751
H       10.07396812       5.54918284       0.10279804
C        5.60819383       6.58004859       0.47873578
C        4.71293285       7.27672879       0.88810173
Br       3.26537156       8.40320174       1.55001185
C        0.13604024      -4.23308423     -11.38194393
C       -1.25942011      -3.73407707     -11.03068545
N       -1.44265354      -3.40404276      -9.62840211
C       -0.98603063      -4.17354210      -8.57006109
O       -0.36202315      -5.21313544      -8.58122014
C       -1.48318152      -3.46487090      -7.29860499
N       -1.00831361      -3.79897088      -6.13898031
N       -1.45030635      -3.18580001      -5.01421389
C       -0.60403319      -3.06630587      -3.91953738
O        0.57129274      -3.41405912      -3.88225507
C       -1.17255419      -2.36436869      -2.74582707
C       -2.51711287      -2.44198662      -2.40538439
N       -3.07533078      -1.75831820      -1.37668876
C       -2.23956681      -0.98971586      -0.63530276
C       -0.87853594      -0.87853594      -0.87853594
C       -0.33429242      -1.57803029      -1.95012809
C       -2.39875823      -2.41172545      -7.75761706
C       -3.21234625      -1.51681508      -7.08174316
C       -3.97212026      -0.62367613      -7.83961680
C       -3.90433639      -0.61624751      -9.23968583
C       -3.07141539      -1.51653174      -9.90963724
C       -2.32415110      -2.41145730      -9.15944434
H        0.24990270      -4.29634797     -12.46909441
H        0.31770155      -5.23363393     -10.97898799
H        0.90801793      -3.56140919     -10.99308038
H       -2.00483175      -4.49029083     -11.29913105
H       -1.44423702      -2.84102902     -11.63599337
H       -2.40520931      -2.86984299      -4.98248033
H       -3.21528320      -3.07729220      -2.94224465
H       -2.71503865      -0.45635197       0.18357085
H        0.72756709      -1.51083064      -2.17789580
H       -3.28387135      -1.48028516      -6.00521585
H       -4.49907360       0.09074823      -9.81450513
H       -3.03202910      -1.49460852     -10.99371531
C       -4.84496160       0.30560276      -7.17014780
C       -5.57596622       1.08387383      -6.60946751
Br      -6.75793887       2.34227233      -5.70289491
C        0.97835244      10.58525217       5.87208820
C        0.29905101       9.55662262       6.76661101
N       -0.06053024       8.32113594       6.09343223
C       -0.64422294       8.24676603       4.83864484
O       -0.94835489       9.13579559       4.07222826
C       -0.90425716       6.75103573       4.59136451
N       -1.21158594       6.33124321       3.40343565
N       -1.45245686       5.01624793       3.18161545
C       -1.18677631       4.47071858       1.93238156
O       -0.67587345       5.06187354       0.98727447
C       -1.46511914       3.02254642       1.79508439
C       -2.50285231       2.39189619       2.46973538
N       -2.73874595       1.05833369       2.41325810
C       -1.91756395       0.33073989       1.61628160
C       -0.87853594       0.87853594       0.87853594
C       -0.64825432       2.24708551       0.96711097
C       -0.62319984       6.07822462       5.86667628
C       -0.76236259       4.76445296       6.28408895
C       -0.39044812       4.45193146       7.59303361
C        0.12476863       5.42880099       8.45623737
C        0.27080459       6.74843510       8.01995385
C       -0.10788177       7.06321028       6.72396068
H        1.37079953      11.40890643       6.47743278
H        0.27645623      11.01799943       5.15337717
H        1.80919104      10.14071567       5.31494701
H       -0.61258507       9.98228978       7.19937878
H        0.99264000       9.33109994       7.58279948
H       -1.86530158       4.47181452       3.92041653
H       -3.21167189       2.93882893       3.08431924
H       -2.13293990      -0.73414257       1.58902244
H        0.16164931       2.71316293       0.40964573
H       -1.14215396       3.97949593       5.64772247
H        0.41514582       5.16644455       9.47153178
H        0.67232925       7.48998856       8.70269361
C       -0.54232687       3.10054789       8.06663187
C       -0.66952533       1.96876416       8.46327041
Br      -0.87519447       0.13876559       9.10460139
C       11.87370737      -1.76942801       1.83585255
C       11.15522493      -3.11015418       1.75880352
N        9.70619264      -3.01432462       1.75458114
C        8.96766308      -2.18161966       2.58035107
O        9.34390973      -1.39218248       3.42028652
C        7.49361614      -2.48789619       2.26514508
N        6.55864096      -1.69653807       2.69108577
N        5.25750288      -1.96696107       2.42585630
C        4.34725963      -0.92348576       2.31913105
O        4.61783662       0.27108689       2.37827172
C        2.95435277      -1.31968825       2.00870893
C        2.39283537      -2.50485521       2.46679330
N        1.14436575      -2.92221933       2.14375266
C        0.41445944      -2.09610563       1.35402037
C        0.87853594      -0.87853594       0.87853594
C        2.16897047      -0.48166492       1.21181540
C        7.50658663      -3.66934781       1.39216630
C        6.49546892      -4.45395529       0.86148027
C        6.86076523      -5.52756607       0.04708189
C        8.20556840      -5.79701055      -0.24230922
C        9.21599708      -4.99155808       0.29002920
C        8.85606311      -3.93134877       1.10764086
H       12.94598544      -1.90720010       1.66235414
H       11.76209205      -1.31040776       2.82242057
H       11.49050496      -1.06939150       1.08657517
H       11.44885387      -3.74020342       2.60519634
H       11.48453510      -3.59981073       0.83691358
H        4.97064788      -2.92912169       2.35776307
H        2.92241056      -3.17665782       3.13575168
H       -0.58269770      -2.45591370       1.11460377
H        2.57187781       0.46295625       0.85223779
H        5.44771130      -4.27329386       1.04836720
H        8.47209137      -6.63453018      -0.88379105
H       10.25095030      -5.21574251       0.05366012
C        5.83631756      -6.37667360      -0.50348451
C        4.97834263      -7.08780115      -0.96458388
Br       3.59106974      -8.23763427      -1.71014255
