133
Properties=species:S:1:pos:R:3 pbc="F F F"
C        0.00000000       0.00000000       0.00000000
N        5.45650106       5.70351611      -4.50241952
C        4.85908063       4.81787170      -4.96139709
C        4.06673804       3.72338181      -5.48761223
N        3.34852672       3.03244743      -4.64512800
N        3.31159525       3.33882420      -3.31335398
C        2.47406446       2.51683108      -2.51974246
C        2.00109751       2.98452443      -1.28621678
C        1.19514520       2.17671345      -0.47573617
C        0.88150922       0.88150922      -0.88150922
C        1.37316318       0.38344707      -2.08351456
C        2.17136785       1.19727285      -2.89161650
C        4.07174589       3.41560526      -6.90029240
S        3.11963148       2.13038274      -7.52939607
C        3.68775011       2.49116636      -9.10204697
C        4.57464647       3.54969550      -9.05831084
N        4.77320667       4.08787385      -7.79198156
C        5.24094253       4.10152462     -10.23351708
C        5.63463344       5.44764582     -10.23924495
C        6.26370127       6.00326694     -11.35807097
C        6.51083399       5.21089741     -12.47630215
Br       7.35955846       5.95771896     -13.99060718
C        6.13936858       3.86888212     -12.48486318
C        5.50789054       3.31613701     -11.36618066
H        3.27068965       4.32053383      -3.02760122
H        2.24344473       3.98824517      -0.94702223
H        0.82172376       2.56650620       0.46737738
H        1.14867448      -0.63044479      -2.40267253
H        2.56054990       0.79154878      -3.82237403
H        3.34108040       1.92288448      -9.95297394
H        5.44853089       6.07704663      -9.37055185
H        6.55518138       7.05019644     -11.34319151
H        6.33874697       3.24346271     -13.35129832
H        5.24476495       2.26160867     -11.39325786
N       -5.32858703      -4.53954247      -5.79430718
C       -4.85964073      -4.96123454      -4.81747416
C       -4.27914789      -5.42596707      -3.57261712
N       -3.53989705      -4.58958889      -2.89661621
N       -3.33657866      -3.30610335      -3.32109143
C       -2.52899027      -2.50380200      -2.47784574
C       -2.61890885      -1.10691680      -2.54601307
C       -1.80963989      -0.29739874      -1.74055619
C       -0.88150922      -0.88150922      -0.88150922
C       -0.74807427      -2.26492663      -0.82712391
C       -1.56386055      -3.06792606      -1.62847058
C       -4.51906902      -6.77047117      -3.09810336
S       -3.84713278      -7.31826209      -1.61401543
C       -4.59707656      -8.83814405      -1.84574283
C       -5.29724385      -8.84860006      -3.03680890
N       -5.26396462      -7.64955476      -3.73954270
C       -6.04722709      -9.99951877      -3.52923836
C       -7.15051244      -9.79930955      -4.37170222
C       -7.89293611     -10.88523766      -4.84686540
C       -7.52922963     -12.18074538      -4.48805853
Br      -8.53013713     -13.65088416      -5.12686331
C       -6.42907138     -12.40078621      -3.66325630
C       -5.68989637     -11.31335929      -3.18695255
H       -4.12031766      -2.78102386      -3.71748318
H       -3.32930561      -0.63188583      -3.21752068
H       -1.91024458       0.78328573      -1.79389373
H       -0.01662866      -2.73121262      -0.17306094
H       -1.44040944      -4.14745897      -1.58660430
H       -4.49003629      -9.61952624      -1.10737629
H       -7.44391297      -8.79145602      -4.66076038
H       -8.74775189     -10.70686805      -5.49394940
H       -6.13496042     -13.41044085      -3.38810674
H       -4.82539013     -11.51496798      -2.55927335
N       -4.68323538       5.05881240       5.92038891
C       -4.93683447       4.90545036       4.79606459
C       -5.22694384       4.65280181       3.39798643
N       -4.40629067       3.88402824       2.73578324
N       -3.32274815       3.30532906       3.33569622
C       -2.53026801       2.47930195       2.50106804
C       -1.70221436       1.50127412       3.06835024
C       -0.89152691       0.69420061       2.26186730
C       -0.88150922       0.88150922       0.88150922
C       -1.66575350       1.87298515       0.30138617
C       -2.47836890       2.67071803       1.11117026
C       -6.39099870       5.23150535       2.76513949
S       -6.74723349       4.91920403       1.11297278
C       -8.14803921       5.89270618       1.24021807
C       -8.25632091       6.40921171       2.51712019
N       -7.25368413       6.00718749       3.39219046
C       -9.34115520       7.28326442       2.95156462
C       -9.71977258       7.29983824       4.30191339
C      -10.76452735       8.11956233       4.74094949
C      -11.43166290       8.93558614       3.83078450
Br     -12.84457124      10.04394029       4.41937307
C      -11.06174984       8.94303021       2.48833384
C      -10.01874433       8.12045672       2.05100716
H       -3.42044227       2.91984875       4.27853369
H       -1.68785398       1.34679005       4.14406809
H       -0.27272655      -0.07235385       2.72047988
H       -1.65396291       2.03909906      -0.77215975
H       -3.07644841       3.45116623       0.64685808
H       -8.80307850       6.02286696       0.39099337
H       -9.20489139       6.66771338       5.02352461
H      -11.04528215       8.11240013       5.79088706
H      -11.57263808       9.58532264       1.77554729
H       -9.73914649       8.15938630       1.00109868
N        4.63058616      -5.89148493       5.14036560
C        4.95232735      -4.80457005       4.88145202
C        5.28895319      -3.43202904       4.55674986
N        4.46471878      -2.76785979       3.79352358
N        3.30432473      -3.32558191       3.33386679
C        2.49626670      -2.48240161       2.53196969
C        1.12868355      -2.75348665       2.38966851
C        0.31977397      -1.94797974       1.57984112
C        0.88150922      -0.88150922       0.88150922
C        2.24402625      -0.61885305       0.97724552
C        3.04502323      -1.42225872       1.79297523
C        6.49612328      -2.82285200       5.06866827
S        6.88858771      -1.19057506       4.70024753
C        8.30954294      -1.32888226       5.64253825
C        8.41283784      -2.60304667       6.16676830
N        7.35588714      -3.44829905       5.84887589
C        9.51418744      -3.04655786       7.01523892
C        9.30142748      -4.07224545       7.94785128
C       10.33751585      -4.50652377       8.78099956
C       11.59725908      -3.92169541       8.67907905
Br      12.99978727      -4.50458537       9.80351196
C       11.83178184      -2.91107493       7.75025711
C       10.79360493      -2.47639912       6.92020416
H        2.74679801      -3.90870866       3.96331804
H        0.67360682      -3.58725493       2.91785036
H       -0.74237263      -2.16319896       1.50002625
H        2.69617592       0.19999358       0.42471988
H        4.11096885      -1.21480110       1.84870276
H        8.97149749      -0.48345398       5.76198736
H        8.32154352      -4.53857405       8.03601180
H       10.14904038      -5.29885786       9.50067110
H       12.81572404      -2.45799102       7.65979295
H       11.00919656      -1.69834549       6.19208941
