161
Properties=species:S:1:pos:R:3 pbc="F F F"
C        0.00000000       0.00000000       0.00000000
N        5.01183668       5.96505539      -4.65109062
C        4.81160227       4.85645827      -4.94995258
C        4.56562124       3.46456955      -5.27020875
N        3.82602691       2.77171355      -4.44734632
N        3.32999461       3.33143441      -3.30154056
C        2.53098002       2.48330967      -2.49573448
C        1.80719382       1.41265815      -3.04265368
C        0.99119960       0.60913487      -2.24140838
C        0.88151952       0.88151952      -0.88151952
C        1.56577548       1.95803251      -0.32221860
C        2.37457261       2.76390855      -1.13115210
C        5.13210776       2.87661940      -6.46406550
S        4.92159528       1.21094621      -6.82558335
C        5.87283487       1.40485655      -8.23684903
C        6.29484147       2.71423800      -8.34998370
N        5.84808929       3.55810279      -7.33814643
C        7.09357722       3.27028239      -9.41173444
C        6.98407011       4.56654703      -9.75967762
C        7.76646827       5.14315278     -10.83890132
C        7.64527878       6.48233356     -11.21634331
C        8.41907254       6.97536544     -12.27090218
C        9.31322037       6.14619366     -12.95132291
C        9.43537184       4.80956922     -12.57531139
C        8.65790003       4.32874129     -11.52440694
O        8.80324010       2.97833114     -11.17364021
C        8.07580595       2.39976686     -10.13582920
O        8.25693205       1.22022225      -9.84799378
H        3.94380510       3.92363852      -2.73583999
H        1.87423423       1.19760541      -4.10636313
H        0.44900062      -0.21798791      -2.69107420
H        1.47587773       2.18090949       0.73753725
H        2.89139178       3.60600059      -0.67823887
H        6.06405584       0.56232064      -8.88776560
H        6.28758374       5.22246457      -9.24333790
H        6.95312408       7.14056096     -10.69680777
H        9.91475561       6.53112807     -13.77097530
H       10.12681227       4.15203521     -13.09476436
C        8.29102003       8.35514454     -12.66258086
C        8.18377605       9.51070954     -12.99061175
Br       8.01037161      11.37916040     -13.52100995
N       -5.88182352      -4.52423903      -5.22192015
C       -4.87841154      -4.94021121      -4.79939037
C       -3.60865917      -5.40974208      -4.28199830
N       -2.90079962      -4.58225245      -3.56203471
N       -3.32666035      -3.30202673      -3.33428250
C       -2.47859710      -2.50337236      -2.52805470
C       -1.62800828      -3.06878048      -1.56571689
C       -0.82663862      -2.26540280      -0.74970144
C       -0.88151952      -0.88151952      -0.88151952
C       -1.74138914      -0.29661262      -1.80802484
C       -2.54735883      -1.10595838      -2.61631606
C       -3.15323434      -6.75260232      -4.56695599
S       -1.61817250      -7.30725090      -4.03270144
C       -1.90709291      -8.81508844      -4.79235910
C       -3.14348126      -8.80947922      -5.40610269
N       -3.86188736      -7.62775182      -5.25469933
C       -3.74922516      -9.89936983      -6.12699905
C       -5.08754042     -10.03620802      -6.18654633
C       -5.71858082     -11.13750099      -6.89244056
C       -7.10534513     -11.29507030      -6.94354022
C       -7.65195738     -12.38275420      -7.63062859
C       -6.82903928     -13.31353795      -8.26815971
C       -5.44487062     -13.15716091      -8.21822092
C       -4.91129787     -12.07069388      -7.52905652
O       -3.51458387     -11.94477193      -7.49585564
C       -2.88071028     -10.89331899      -6.83737274
O       -1.65610257     -10.81045170      -6.85859382
H       -3.72293866      -2.76804423      -4.11230072
H       -1.58580383      -4.14841878      -1.44398018
H       -0.17163270      -2.73151684      -0.01893737
H       -1.79513817       0.78408817      -1.90819998
H       -3.22004033      -0.63031908      -3.32527183
H       -1.16622502      -9.60191160      -4.74600546
H       -5.74061898      -9.32309009      -5.68967715
H       -7.75952894     -10.57922698      -6.45173689
H       -7.25556174     -14.15870872      -8.80258852
H       -4.79145123     -13.87270605      -8.70945456
C       -9.08168163     -12.54729557      -7.67976823
C      -10.27907569     -12.68509897      -7.72092268
Br     -12.21516061     -12.90791542      -7.78746594
N       -4.53212770       5.88987500       5.20597999
C       -4.86788983       4.80459749       4.94552581
C       -5.26589558       3.46184378       4.57266018
N       -4.46948417       2.78570389       3.78989873
N       -3.31510013       3.34000358       3.30786588
C       -2.52791589       2.50364719       2.47846109
C       -2.55719826       1.10586738       2.59944001
C       -1.74481250       0.29530372       1.80162664
C       -0.88151952       0.88151952       0.88151952
C       -0.81236896       2.26779032       0.76586731
C       -1.62214410       3.07419824       1.57329092
C       -6.51006048       2.90568662       5.05704556
S       -7.04268673       1.34814793       4.56729018
C       -8.46309877       1.54783843       5.50360325
C       -8.45221813       2.77884657       6.12799847
N       -7.31704408       3.54476685       5.88252759
C       -9.45999350       3.30078042       7.01482013
C       -9.14539585       4.17834254       7.98655638
C      -10.14252024       4.70306440       8.90293772
C       -9.82016256       5.59999638       9.92379670
C      -10.82385194       6.06088053      10.78060769
C      -12.14562354       5.63701997      10.62809343
C      -12.46868505       4.74218512       9.60938228
C      -11.46009944       4.28810121       8.76284763
O      -11.81889645       3.38611041       7.75020458
C      -10.88756484       2.87483737       6.84899980
O      -11.25390582       2.10870925       5.96253301
H       -3.33677682       4.30340947       2.96309732
H       -3.21802376       0.63620614       3.32397288
H       -1.79484006      -0.78437640       1.91162326
H       -0.13275320       2.73090248       0.05559430
H       -1.54542083       4.15402911       1.47618130
H       -9.20932287       0.76553354       5.53928567
H       -8.11963076       4.51232114       8.12143432
H       -8.79553631       5.93902421      10.05593228
H      -12.92528615       5.99668224      11.29489060
H      -13.49247981       4.40337740       9.47775462
C      -10.49057834       6.98251527      11.83565182
C      -10.21146170       7.75438436      12.71925128
Br      -9.76015370       9.00243140      14.14795688
N        5.43978819      -4.44521840       5.74297610
C        4.93132207      -4.89235965       4.79433140
C        4.25587197      -5.41921809       3.62530948
N        3.49521687      -4.60648725       2.94338267
N        3.31274810      -3.30983724       3.34038424
C        2.47541563      -2.52246453       2.51214401
C        2.32640838      -2.79287806       1.14321921
C        1.52849459      -1.98293491       0.33031335
C        0.88151952      -0.88151952       0.88151952
C        1.03979395      -0.57524958       2.23098308
C        1.84665832      -1.38511285       3.03786209
C        4.42618407      -6.80366023       3.24294836
S        3.57604227      -7.47288095       1.90920162
C        4.29845395      -8.99422759       2.22185891
C        5.13613270      -8.90739720       3.31553327
N        5.21966679      -7.64045810       3.88421362
C        5.93564933      -9.96877228       3.87117243
C        7.09162801      -9.70793535       4.51073141
C        7.92200213     -10.76407952       5.06244071
C        9.13045964     -10.50187572       5.71162028
C        9.89008517     -11.56325043       6.21200456
C        9.45539036     -12.88292999       6.07241658
C        8.24929781     -13.14588934       5.42506530
C        7.50167891     -12.08062372       4.92874564
O        6.29452238     -12.38049490       4.28019416
C        5.47105765     -11.38888078       3.75146357
O        4.41050912     -11.69837079       3.21626818
H        3.15541651      -3.11510565       4.33276145
H        2.83733495      -3.64304970       0.69781813
H        1.42514406      -2.22148638      -0.72454353
H        0.54441775       0.28944504       2.66427727
H        1.96672315      -1.12306400       4.08584409
H        4.06946233      -9.84729346       1.59738629
H        7.44593623      -8.68609580       4.62135419
H        9.48287532      -9.47983459       5.82778289
H       10.04696569     -13.70737374       6.46251955
H        7.89754637     -14.16718474       5.30888072
C       11.13803044     -11.29298561       6.87772939
C       12.18318460     -11.06663882       7.43527392
Br      13.87311048     -10.70065520       8.33677629
