153
Properties=species:S:1:pos:R:3 pbc="F F F"
C        0.00000000       0.00000000       0.00000000
N        5.01183668       5.96505539      -4.65109062
C        4.81160227       4.85645827      -4.94995258
C        4.56562124       3.46456955      -5.27020875
N        3.82602691       2.77171355      -4.44734632
N        3.32999461       3.33143441      -3.30154056
C        2.53098002       2.48330967      -2.49573448
C        1.80719382       1.41265815      -3.04265368
C        0.99119960       0.60913487      -2.24140838
C        0.88151952       0.88151952      -0.88151952
C        1.56577548       1.95803251      -0.32221860
C        2.37457261       2.76390855      -1.13115210
C        5.13210776       2.87661940      -6.46406550
S        4.92159528       1.21094621      -6.82558335
C        5.87283487       1.40485655      -8.23684903
C        6.29484147       2.71423800      -8.34998370
N        5.84808929       3.55810279      -7.33814643
C        7.09357722       3.27028239      -9.41173444
C        6.98407011       4.56654703      -9.75967762
C        7.76646827       5.14315278     -10.83890132
C        7.64527878       6.48233356     -11.21634331
C        8.41907254       6.97536544     -12.27090218
Br       8.25092096       8.78721622     -12.78523329
C        9.31322037       6.14619366     -12.95132291
C        9.43537184       4.80956922     -12.57531139
C        8.65790003       4.32874129     -11.52440694
O        8.80324010       2.97833114     -11.17364021
C        8.07580595       2.39976686     -10.13582920
O        8.25693205       1.22022225      -9.84799378
H        3.94380510       3.92363852      -2.73583999
H        1.87423423       1.19760541      -4.10636313
H        0.44900062      -0.21798791      -2.69107420
H        1.47587773       2.18090949       0.73753725
H        2.89139178       3.60600059      -0.67823887
H        6.06405584       0.56232064      -8.88776560
H        6.28758374       5.22246457      -9.24333790
H        6.95312408       7.14056096     -10.69680777
H        9.91475561       6.53112807     -13.77097530
H       10.12681227       4.15203521     -13.09476436
N       -5.90181904      -4.54493169      -5.18123197
C       -4.87418502      -4.94248758      -4.80134052
C       -3.57598480      -5.38825463      -4.33616012
N       -2.87128742      -4.56122962      -3.61256975
N       -3.32761905      -3.30182392      -3.33352661
C       -2.47936988      -2.50189064      -2.52876364
C       -1.58359774      -3.06932468      -1.60958323
C       -0.78184199      -2.26638099      -0.79351986
C       -0.88151952      -0.88151952      -0.88151952
C       -1.78604994      -0.29594381      -1.76403285
C       -2.59199059      -1.10521804      -2.57242463
C       -3.09000680      -6.70765151      -4.67513435
S       -1.52371086      -7.23089000      -4.20352398
C       -1.79097566      -8.72374161      -4.99982318
C       -3.04508157      -8.73762176      -5.57635984
N       -3.79311078      -7.58326850      -5.36795923
C       -3.64004007      -9.82367946      -6.31187451
C       -4.97492603      -9.99933246      -6.33603627
C       -5.59436566     -11.09799420      -7.05616251
C       -6.97678852     -11.29608220      -7.07108492
C       -7.51170558     -12.37913478      -7.77449980
Br      -9.38304156     -12.65019161      -7.79013729
C       -6.68144541     -13.26524645      -8.46404508
C       -5.30161598     -13.06839430      -8.45024217
C       -4.77962767     -11.98701526      -7.74440533
O       -3.38687442     -11.81971546      -7.74862156
C       -2.76457506     -10.76936377      -7.07746318
O       -1.54415784     -10.64870732      -7.13228292
H       -3.76295664      -2.75741197      -4.08291501
H       -1.50586994      -4.15030239      -1.52203045
H       -0.09144882      -2.73372372      -0.09691438
H       -1.87468767       0.78510812      -1.82967042
H       -3.29966144      -0.62953963      -3.24643017
H       -1.02614493      -9.48869799      -4.99929916
H       -5.63335319      -9.32137587      -5.79865716
H       -7.63655440     -10.61528679      -6.53865162
H       -7.09889496     -14.10685696      -9.01110706
H       -4.64260531     -13.74893187      -8.98207466
N       -4.47599363       5.81587751       5.33611156
C       -4.88145840       4.79810309       4.93845164
C       -5.36078050       3.54173422       4.39788483
N       -4.55477267       2.86323788       3.62707623
N       -3.31210269       3.34043306       3.31043383
C       -2.52516209       2.50838119       2.47648089
C       -2.69378428       1.11543090       2.45329046
C       -1.88269589       0.30352157       1.65552539
C       -0.88151952       0.88151952       0.88151952
C       -0.67498211       2.25857744       0.91246705
C       -1.48482813       3.06523092       1.71957421
C       -6.69280709       3.07150102       4.70848455
S       -7.31335169       1.62651159       4.01826157
C       -8.79645990       1.88162980       4.83645075
C       -8.73613579       3.04322909       5.57969830
N       -7.51695925       3.71044645       5.51693282
C       -9.77606642       3.58068334       6.41884429
C       -9.48194659       4.32992774       7.49842043
C      -10.51403919       4.86637906       8.36810412
C      -10.21539823       5.62955554       9.49900188
C      -11.25383362       6.10885065      10.30265590
Br     -10.84902327       7.13761788      11.83672932
C      -12.58672104       5.83556277       9.98845313
C      -12.88608380       5.07433887       8.85982978
C      -11.84320940       4.60035233       8.06748654
O      -12.17923931       3.83507425       6.94089789
C      -11.21262917       3.31717117       6.08160166
O      -11.55641634       2.67575185       5.09297989
H       -3.21110261       4.32854936       3.06363165
H       -3.46409456       0.65041004       3.06369817
H       -2.04176175      -0.77118448       1.65150964
H        0.11191541       2.71392230       0.31724309
H       -1.30059383       4.13623010       1.73880730
H       -9.61070651       1.17824666       4.72518891
H       -8.44875442       4.54550103       7.75913076
H       -9.18259852       5.85049583       9.75739846
H      -13.39334732       6.20939929      10.61411238
H      -13.91809064       4.85348683       8.60203436
N        4.61872472      -5.05823336       5.95102461
C        4.94823871      -4.80843938       4.86133504
C        5.30724055      -4.50211990       3.49103910
N        4.48287171      -3.76705770       2.79515736
N        3.30152596      -3.33102530       3.33041832
C        2.49741856      -2.53049380       2.48211181
C        3.05471556      -1.75060594       1.45718414
C        2.25302291      -0.93454863       0.65417131
C        0.88151952      -0.88151952       0.88151952
C        0.31024509      -1.62256083       1.91322067
C        1.11927897      -2.43124914       2.71910516
C        6.54006141      -5.00585978       2.92687147
S        6.95096206      -4.72378529       1.28337748
C        8.38772931      -5.63219408       1.49461706
C        8.47070066      -6.09646470       2.79189782
N        7.41513553      -5.71516986       3.61403312
C        9.54048154      -6.87749628       3.35761623
C        9.83947716      -6.80235663       4.66846097
C       10.92541944      -7.56720225       5.25590068
C       11.25198403      -7.48090911       6.61106250
C       12.31586160      -8.23503064       7.11444793
Br      12.76120412      -8.11397108       8.94819527
C       13.05586024      -9.07510238       6.27977432
C       12.73067065      -9.16239821       4.92718358
C       11.66989186      -8.40491243       4.43624399
O       11.37121716      -8.51400803       3.06998625
C       10.32866346      -7.80256369       2.48017486
O       10.08823740      -7.95132628       1.28558440
H        2.73801807      -3.98466345       3.88060210
H        4.12691006      -1.77328578       1.27800693
H        2.71127711      -0.34805354      -0.13724373
H       -0.75908478      -1.57719456       2.10114019
H        0.65636139      -2.99304099       3.52622886
H        9.07366228      -5.77074161       0.66973820
H        9.27636742      -6.14787987       5.32913893
H       10.68575730      -6.83095103       7.27378447
H       13.88269991      -9.66140887       6.67275020
H       13.29676558      -9.81167046       4.26517579
