133
Properties=species:S:1:pos:R:3 pbc="F F F"
C        0.00000000       0.00000000       0.00000000
N        5.66638702       5.59449729      -4.32396349
C        4.79202982       5.01857585      -4.82778246
C        3.70431637       4.24987465      -5.40318235
N        3.02062718       3.47280573      -4.60809027
N        3.29517824       3.38678097      -3.27636145
C        2.50988231       2.49789915      -2.50717431
C        2.79219433       2.33590259      -1.14341501
C        1.98806368       1.52551641      -0.33383127
C        0.88146805       0.88146805      -0.88146805
C        0.56675269       1.04801232      -2.22592835
C        1.37089333       1.86376301      -3.02720557
C        3.39401436       4.34538819      -6.81213978
S        2.09900730       3.45023206      -7.49728912
C        2.46707390       4.11159280      -9.03267089
C        3.54462063       4.97273386      -8.94288169
N        4.06484939       5.10277665      -7.65729943
C        4.13307547       5.69270830     -10.07448377
C        5.21721810       6.55828013      -9.85463304
C        5.82190822       7.24109514     -10.91482890
C        5.35019739       7.06987789     -12.21378352
C        4.27138230       6.22147878     -12.44290671
Br       3.62483771       5.98247452     -14.20465811
C        3.66242777       5.53787287     -11.38758615
H        4.24778918       3.49462608      -2.92049853
H        3.63786556       2.84966078      -0.69309431
H        2.22814761       1.41411786       0.72006611
H       -0.30099935       0.56061410      -2.66159365
H        1.10027460       1.99725399      -4.07174078
H        1.87989266       3.82490834      -9.89212062
H        5.60706932       6.70625991      -8.84834135
H        6.66352947       7.90245370     -10.72354551
H        5.82778602       7.59750468     -13.03503277
H        2.82575097       4.88365485     -11.61107734
N       -4.48644469      -5.10900824      -5.98939487
C       -4.92016869      -4.74252850      -4.97569093
C       -5.39327544      -4.27947620      -3.68462172
N       -4.57403163      -3.57457196      -2.95291959
N       -3.31851176      -3.26083708      -3.37897181
C       -2.50240524      -2.51214899      -2.50040153
C       -1.18453795      -2.21302848      -2.87394550
C       -0.37304668      -1.40834194      -2.06602275
C       -0.88146805      -0.88146805      -0.88146805
C       -2.19405715      -1.14324254      -0.50339368
C       -3.00074559      -1.94282464      -1.31829168
C       -6.72922210      -4.59314376      -3.22917646
S       -7.30119941      -4.03614233      -1.70918674
C       -8.79465596      -4.82277439      -1.99390723
C       -8.77989880      -5.45972193      -3.22061545
N       -7.58652794      -5.31423978      -3.92415775
C       -9.88986247      -6.24435132      -3.76605376
C       -9.76380287      -6.82967799      -5.03665041
C      -10.79200003      -7.60810416      -5.57772806
C      -11.96519100      -7.81266504      -4.85600278
C      -12.10505447      -7.23097129      -3.59974202
Br     -13.69525286      -7.50456239      -2.61215508
C      -11.08191115      -6.45122076      -3.05475487
H       -2.78748140      -3.89207733      -3.98335506
H       -0.77805667      -2.59579573      -3.80676824
H        0.64572649      -1.19199325      -2.37593260
H       -2.60566893      -0.72771551       0.41217605
H       -4.02976408      -2.12267914      -1.01682616
H       -9.57503427      -4.77235301      -1.24953434
H       -8.85454842      -6.68771336      -5.61940879
H      -10.67193930      -8.05665153      -6.56093785
H      -12.75846500      -8.42388100      -5.27797746
H      -11.23119676      -6.01872683      -2.07055957
N       -5.65790110       5.60340375       4.32354296
C       -4.79076601       5.01832870       4.82929341
C       -3.71204061       4.23858321       5.40674955
N       -3.02822695       3.46225728       4.61103895
N       -3.29444508       3.38690171       3.27697387
C       -2.50994370       2.49791764       2.50709443
C       -2.78421246       2.34685789       1.14044159
C       -1.98008689       1.53650816       0.33081632
C       -0.88146805       0.88146805       0.88146805
C       -0.57463838       1.03698696       2.22906802
C       -1.37868290       1.85275613       3.03042288
C       -3.41052580       4.32267624       6.81834029
S       -2.12608739       3.41436954       7.50607155
C       -2.50000239       4.06797538       9.04335982
C       -3.57119064       4.93686808       8.95217747
N       -4.08195067       5.07890471       7.66407009
C       -4.16239954       5.65323441      10.08463359
C       -5.23928565       6.52746431       9.86338131
C       -5.84649882       7.20725484      10.92407860
C       -5.38461693       7.02428081      12.22496107
C       -4.31300614       6.16719695      12.45556471
Br      -3.67983767       5.91220225      14.21993042
C       -3.70156654       5.48655474      11.39976551
H       -4.24392266       3.50346234       2.91552880
H       -3.62343230       2.86922610       0.68796224
H       -2.21386265       1.43370716      -0.72537044
H        0.28693397       0.54092733       2.66721503
H       -1.11416467       1.97750680       4.07759789
H       -1.92048664       3.77168322       9.90475175
H       -5.62141964       6.68471435       8.85553658
H       -6.68241941       7.87547185      10.73163742
H       -5.86416814       7.54962615      13.04652917
H       -2.87075786       4.82529736      11.62442794
N        4.36088576      -5.39173627       5.83222578
C        4.87486236      -4.76003351       5.00349225
C        5.45372068      -3.97234015       3.93131253
N        4.64298914      -3.28115632       3.17737771
N        3.29669438      -3.27512140       3.38650488
C        2.50471585      -2.51139997       2.49883995
C        1.11002509      -2.51926547       2.64222136
C        0.29931536      -1.71506278       1.83303322
C        0.88146805      -0.88146805       0.88146805
C        2.26425546      -0.83753655       0.73890135
C        3.06812838      -1.63903274       1.55470079
C        6.88252181      -3.95888073       3.71013978
S        7.57607343      -3.01758291       2.45287213
C        9.12872839      -3.58408688       2.89852232
C        9.03811826      -4.44973612       3.97238180
N        7.73940875      -4.65186806       4.43364866
C       10.17669856      -5.13138919       4.59217979
C        9.96088815      -5.97477334       5.69446978
C       11.02005237      -6.66325369       6.29452620
C       12.31431257      -6.51781615       5.80173009
C       12.54177618      -5.67853069       4.71546092
Br      14.29689375      -5.47595655       4.03912004
C       11.48787438      -4.98713363       4.11287878
H        2.81106253      -4.09560088       3.75625038
H        0.63918168      -3.14572541       3.39571355
H       -0.77937025      -1.73979033       1.96177927
H        2.73051877      -0.18210732       0.00858229
H        4.14788726      -1.57909070       1.44229141
H        9.99610957      -3.25384633       2.34696571
H        8.95724164      -6.10822696       6.09620198
H       10.83044360      -7.31541593       7.14366915
H       13.13287836      -7.06017931       6.26726579
H       11.70909858      -4.34536492       3.26601966
