162
Properties=species:S:1:pos:R:3 pbc="F F F"
N        6.57629105       6.50440132      -5.23386751
C        5.70193384       5.92847987      -5.73768648
C        4.61422040       5.15977867      -6.31308638
N        3.93053120       4.38270975      -5.51799430
N        4.20508226       4.29668499      -4.18626548
C        3.41978633       3.40780317      -3.41707834
C        3.70209835       3.24580661      -2.05331904
C        2.89796770       2.43542044      -1.24373530
C        1.79137208       1.79137208      -1.79137208
C        1.47665671       1.95791634      -3.13583237
C        2.28079735       2.77366703      -3.93710959
C        4.30391838       5.25529221      -7.72204381
S        3.00891133       4.36013608      -8.40719314
C        3.37697792       5.02149682      -9.94257492
C        4.45452466       5.88263788      -9.85278571
N        4.97475341       6.01268068      -8.56720346
C        5.04297949       6.60261233     -10.98438779
C        6.12712213       7.46818415     -10.76453706
C        6.73181224       8.15099916     -11.82473292
C        6.26010142       7.97978192     -13.12368755
C        5.18128633       7.13138281     -13.35281073
C        4.57233179       6.44777689     -12.29749018
H        5.15769321       4.40453011      -3.83040255
H        4.54776958       3.75956480      -1.60299833
H        3.13805164       2.32402188      -0.18983791
H        0.60890467       1.47051812      -3.57149767
H        2.01017863       2.90715801      -4.98164480
H        2.78979668       4.73481236     -10.80202464
H        6.51697334       7.61616393      -9.75824537
H        7.57343350       8.81235772     -11.63344953
H        6.73769004       8.50740870     -13.94493679
H        3.73565500       5.79355888     -12.52098137
C        4.68914988       6.94945768     -14.69381966
C        4.27698560       6.79709538     -15.81691465
Br       3.61055083       6.55073843     -17.63286425
N       -5.88115819      -5.48682100      -6.94658068
C       -5.90637446      -5.66329212      -5.79843362
C       -5.87018172      -5.85605173      -4.36085200
N       -5.05645359      -5.10827981      -3.66650185
N       -4.27199212      -4.16191749      -4.25412312
C       -3.40858566      -3.42115417      -3.41492800
C       -2.54373860      -2.47483723      -3.98264817
C       -1.73184826      -1.66807718      -3.17719800
C       -1.79137208      -1.79137208      -1.79137208
C       -2.66060497      -2.70500273      -1.20479773
C       -3.47299942      -3.50327645      -2.01529811
C       -6.70983229      -6.84655027      -3.72487183
S       -6.68337410      -7.07008445      -2.02278200
C       -7.84691700      -8.31599853      -2.17813413
C       -8.19261812      -8.49252230      -3.50480783
N       -7.53484922      -7.63560432      -4.38418400
C       -9.14710870      -9.49092680      -3.99194411
C       -9.43290715      -9.56158736      -5.36534883
C      -10.31794051     -10.51976848      -5.86983534
C      -10.93334781     -11.42312919      -5.00709388
C      -10.66454904     -11.35749368      -3.64343714
C       -9.78245389     -10.40156689      -3.13357808
H       -3.90583633      -4.28594362      -5.20084592
H       -2.50104102      -2.34778709      -5.06150462
H       -1.06831777      -0.94299812      -3.64059554
H       -2.72483202      -2.80152801      -0.12456043
H       -4.15957973      -4.19949430      -1.53990741
H       -8.19342808      -8.83568482      -1.29752079
H       -8.96149599      -8.86870242      -6.06118424
H      -10.52128411     -10.56074941      -6.93720724
H      -11.61507430     -12.17009424      -5.40486700
H       -9.59878148     -10.38743482      -2.06397894
C      -11.29715797     -12.28921644      -2.74605281
C      -11.82696795     -13.06953424      -1.99449343
Br     -12.68362588     -14.33124215      -0.77928548
N       -6.88502532       5.37749453       6.05204003
C       -5.88943320       5.82491351       5.65375348
C       -4.61958733       6.31558314       5.15191498
N       -3.88535499       5.49697776       4.44890250
N       -4.29010146       4.22581746       4.17211381
C       -3.41009452       3.41256959       3.42200373
C       -3.76065343       2.08055959       3.16001098
C       -2.95258089       1.26914203       2.35540051
C       -1.79137208       1.79137208       1.79137208
C       -1.43698014       3.11737434       2.01605096
C       -2.25202878       3.92372609       2.81581910
C       -4.18725239       7.66776934       5.42623268
S       -2.69284012       8.26015289       4.82324754
C       -2.99352509       9.76418791       5.58333666
C       -4.20545229       9.73691416       6.24758181
N       -4.88527595       8.52557743       6.14378416
C       -4.75824263      10.85192467       7.01981232
C       -6.01268454      10.71129928       7.63585952
C       -6.55943262      11.74453978       8.40357193
C       -5.85970048      12.93741606       8.56645434
C       -4.61981550      13.09160754       7.95405683
C       -4.06930105      12.06347403       7.18482378
H       -4.86864604       3.69593422       4.82804561
H       -4.67565507       1.66249224       3.57218541
H       -3.24438810       0.23930695       2.16821638
H       -0.54005007       3.53946566       1.57140474
H       -1.96968375       4.96280608       2.96649161
H       -2.26796718      10.55926308       5.49940343
H       -6.57802567       9.78664767       7.52670931
H       -7.52973633      11.61312106       8.87638336
H       -6.28581619      13.73471947       9.16949987
H       -3.09831304      12.22448198       6.72740022
C       -3.89084020      14.32243610       8.11915092
C       -3.28032338      15.35325502       8.25741723
Br      -2.29316933      17.02000202       8.48098216
N        5.28636690      -6.25368485       6.77450813
C        5.79265743      -5.66596018       5.90948259
C        6.36071997      -4.93229934       4.79406613
N        5.54804892      -4.23918064       4.04400569
N        4.21024108      -4.18218690       4.29560475
C        3.41421357      -3.42148418       3.40897009
C        2.02545419      -3.37887821       3.59689160
C        1.21458722      -2.57462022       2.78791600
C        1.79137208      -1.79137208       1.79137208
C        3.16941640      -1.79753223       1.60345680
C        3.97375751      -2.59865096       2.41916551
C        7.78117224      -4.97291800       4.52716416
S        8.46261048      -4.09548462       3.21814545
C       10.01025355      -4.69829021       3.63250590
C        9.92749859      -5.52583850       4.73661116
N        8.63889155      -5.67032646       5.24541954
C       11.06356389      -6.22449834       5.34191738
C       10.85738493      -7.02477917       6.47767924
C       11.91325034      -7.72827469       7.06601930
C       13.19456905      -7.64127967       6.52772216
C       13.41278561      -6.84496631       5.40772794
C       12.36218689      -6.13881078       4.81660119
H        3.71114754      -4.97404527       4.70743307
H        1.55994262      -3.96518198       4.38520812
H        0.14048255      -2.55972371       2.95170517
H        3.63203814      -1.18140061       0.83748172
H        5.05059377      -2.57788480       2.27050287
H       10.86909499      -4.41451070       3.04302799
H        9.86376005      -7.11226723       6.91535537
H       11.73100706      -8.34646122       7.94177247
H       14.01031680      -8.19517945       6.98453929
H       12.57575646      -5.53197450       3.94246427
C       14.73531411      -6.75129649       4.84581662
C       15.84293173      -6.67284801       4.37521589
Br      17.63385574      -6.54600346       3.61429431
C       -0.00445707       0.01189536      -1.78238275
H       -0.66409135       0.67374010      -2.43557963
H        0.65740317      -0.63156657      -2.45157240
C       -0.90989263      -0.90692880      -0.91072765
C        0.90977584       0.90977584      -0.90977584
C       -0.00465871       1.77757030       0.00794375
H       -0.66225468       2.44313916      -0.64384735
H        0.64322798       2.43503045       0.67728295
C       -1.78241447       0.00034974      -0.00472694
H       -2.45427497      -0.65498947       0.64260836
H       -2.43311707       0.67328779      -0.65473579
C       -0.91132561       0.90220522       0.91563759
C       -0.01476271      -0.02253852       1.78660255
H       -0.67934791      -0.69751639       2.42135241
H        0.63392994       0.61504881       2.47327442
C        0.01484550      -1.77751727      -0.01636693
H        0.67870853      -2.42144646      -0.68295456
H       -0.62264859      -2.45592969       0.64226336
C        1.78714474       0.01002794       0.00389507
H        2.44202412       0.67113390       0.66197326
H        2.45385902      -0.65136977      -0.64189061
C        0.91606151      -0.90478549       0.90901405
