174
Properties=species:S:1:pos:R:3 pbc="F F F"
C        1.79130761       1.79130761      -1.79130761
C        2.98008342       2.30666839      -1.28620693
C        3.79095262       3.10847960      -2.09569663
C        3.42753393       3.40643215      -3.42267845
C        2.20724698       2.88750009      -3.90094918
C        1.39932187       2.07937496      -3.09491986
C        4.28992794       4.28620299      -4.34043584
H        3.66083782       5.12049308      -4.67118989
N        4.63641581       3.58136882      -5.57461514
C        5.65034657       2.62885251      -5.43497050
C        5.74629603       1.56185726      -6.33542983
C        6.78859859       0.63649384      -6.23533467
C        7.76500593       0.78742793      -5.25316482
C        7.70807657       1.87497468      -4.38323488
C        6.65891337       2.79807869      -4.48656276
C        6.62474345       4.00405279      -3.62531918
O        7.57602370       4.18011862      -2.86414373
N        5.49743206       4.83723640      -3.72910707
C        5.44746134       6.13073939      -3.08704728
C        6.62463862       6.83544750      -2.78288125
C        6.59411245       8.09624270      -2.17241129
C        5.37563648       8.68381066      -1.86277853
Br       5.32640618      10.38429497      -1.04261109
C        4.19151756       8.02063215      -2.15873048
C        4.22912096       6.75709586      -2.76557186
H        3.28985769       2.09284581      -0.26605469
H        4.71174214       3.49605987      -1.66234003
H        1.87141144       3.10635647      -4.91240786
H        0.46928214       1.68136201      -3.49279871
H        3.82734299       3.21451419      -6.06146940
H        5.00652149       1.43747758      -7.12186494
H        6.84290820      -0.19669039      -6.93184439
H        8.58053247       0.07249091      -5.17810096
H        8.48807413       2.01250703      -3.63782912
H        7.60373010       6.43563204      -3.03501981
H        7.53038873       8.60242721      -1.95220298
H        3.23144990       8.46953711      -1.91696543
H        3.26968533       6.27985533      -2.93904082
C       -1.79130761      -1.79130761      -1.79130761
C       -1.56084509      -1.85066935      -3.16144431
C       -2.36381896      -2.66329920      -3.96801070
C       -3.40828209      -3.43033533      -3.41802711
C       -3.63180986      -3.33436907      -2.02951732
C       -2.82471784      -2.52800841      -1.22089044
C       -4.31339352      -4.33110306      -4.27207020
H       -5.34528692      -4.00124730      -4.10598658
N       -4.29150792      -5.71179262      -3.78909923
C       -3.14470914      -6.43151783      -4.13794262
C       -2.74037692      -7.53095022      -3.37225597
C       -1.62683052      -8.28828379      -3.74531279
C       -0.92513196      -7.97353371      -4.90693301
C       -1.34941666      -6.91221431      -5.70465515
C       -2.46502541      -6.15456460      -5.32396482
C       -2.98047740      -5.07472424      -6.19891377
O       -2.42217818      -4.91394188      -7.28416598
N       -4.04972667      -4.30489146      -5.70915739
C       -4.75411131      -3.36280789      -6.54832880
C       -4.78235268      -3.51559904      -7.94501565
C       -5.47122970      -2.61900655      -8.77253019
C       -6.15845017      -1.55143624      -8.21233925
Br      -7.09177648      -0.34048434      -9.32105141
C       -6.16099045      -1.37542763      -6.83446211
C       -5.46581549      -2.27371114      -6.01226204
H       -0.76038200      -1.27208302      -3.61629317
H       -2.15409130      -2.67957424      -5.03647650
H       -4.43992202      -3.89085450      -1.55939926
H       -3.01054174      -2.48208366      -0.15081746
H       -4.51043956      -5.78978681      -2.80310021
H       -3.28619928      -7.80607506      -2.47358966
H       -1.31412477      -9.13076363      -3.13317380
H       -0.06276542      -8.56580497      -5.20255395
H       -0.82279957      -6.68647805      -6.62913266
H       -4.28916515      -4.35329547      -8.43192133
H       -5.46203416      -2.77483326      -9.84815151
H       -6.69248941      -0.54043360      -6.38502943
H       -5.48078467      -2.05963779      -4.94815901
C       -1.79130761       1.79130761       1.79130761
C       -1.42891124       2.03186413       3.11218338
C       -2.23262812       2.84479199       3.91770874
C       -3.40981993       3.43119367       3.41563093
C       -3.76303980       3.15307081       2.07958564
C       -2.95619075       2.34652422       1.27090171
C       -4.31970661       4.32612107       4.27073910
H       -5.31824540       3.87446474       4.25981065
N       -4.50730354       5.63668013       3.64841610
C       -3.42134983       6.50646178       3.78635798
C       -3.22787199       7.54605044       2.86966069
C       -2.17660721       8.45234488       3.03147501
C       -1.32703731       8.34793257       4.13062880
C       -1.54131473       7.34763200       5.07733939
C       -2.59536919       6.43993132       4.90825431
C       -2.88959739       5.42082490       5.94369312
O       -2.20735302       5.44489393       6.96803908
N       -3.90771492       4.49329304       5.66276757
C       -4.40818804       3.58663181       6.67042817
C       -4.30941112       3.89582414       8.03773211
C       -4.80101736       3.03436220       9.02738690
C       -5.41463799       1.84403029       8.66355740
Br      -6.08241596       0.67919293       9.99170334
C       -5.53920258       1.51089071       7.32078690
C       -5.04102043       2.37528721       6.33548103
H       -0.52434952       1.59545003       3.52895864
H       -1.91691377       3.00582976       4.94739852
H       -4.67418571       3.56509850       1.65089157
H       -3.24503460       2.15847887       0.23992938
H       -4.83446788       5.57733880       2.69151990
H       -3.89170562       7.65776320       2.01639519
H       -2.02813567       9.24633264       2.30359388
H       -0.51287553       9.05626905       4.26197976
H       -0.89948666       7.28570582       5.95321779
H       -3.86852879       4.83055210       8.37530106
H       -4.69877860       3.31337390      10.07286642
H       -6.01437406       0.57919812       7.02438026
H       -5.14105200       2.03946433       5.30806514
C        1.79130761      -1.79130761       1.79130761
C        3.16671677      -1.81846231       1.58777967
C        3.97500308      -2.62058593       2.39953984
C        3.42190742      -3.40663232       3.42810479
C        2.02285279      -3.37507962       3.59776384
C        1.21441229      -2.56758046       2.79162394
C        4.27671232      -4.30274649       4.33710797
H        3.88953990      -5.32342011       4.23956078
N        4.07408828      -3.97092613       5.74738537
C        4.73051978      -2.81173756       6.17191225
C        4.26127624      -2.10033591       7.28197097
C        4.94302804      -0.97199432       7.74540473
C        6.12018498      -0.56233763       7.12307607
C        6.62453339      -1.29310292       6.04864982
C        5.93499799      -2.42204508       5.58651175
C        6.49620121      -3.25873253       4.49918167
O        7.60581854      -2.94911495       4.06535255
N        5.70602917      -4.32400037       4.03374599
C        6.22872553      -5.31511673       3.12140575
C        7.60654526      -5.58315832       3.05326379
C        8.12903498      -6.54982169       2.18390978
C        7.27474099      -7.27879115       1.36869354
Br       7.97129657      -8.58551340       0.19650225
C        5.90586053      -7.04782592       1.41719375
C        5.38984001      -6.07579993       2.28614872
H        3.62467163      -1.22090290       0.80318367
H        5.04664698      -2.61744747       2.20604758
H        1.54469760      -3.98066014       4.36481804
H        0.13937905      -2.55195564       2.95210816
H        3.09877087      -3.98367127       6.02088444
H        3.35611799      -2.41511702       7.79462900
H        4.55929360      -0.41925626       8.59951234
H        6.65575484       0.31112825       7.48649776
H        7.56102267      -0.99399230       5.58339531
H        8.31545084      -5.06475989       3.69417122
H        9.20227249      -6.72020996       2.16253647
H        5.22769993      -7.61002513       0.78022738
H        4.31579952      -5.92242993       2.25035202
C       -0.00445707       0.01189536      -1.78238275
H       -0.66409135       0.67374010      -2.43557963
H        0.65740317      -0.63156657      -2.45157240
C       -0.90989263      -0.90692880      -0.91072765
C        0.90977584       0.90977584      -0.90977584
C       -0.00465871       1.77757030       0.00794375
H       -0.66225468       2.44313916      -0.64384735
H        0.64322798       2.43503045       0.67728295
C       -1.78241447       0.00034974      -0.00472694
H       -2.45427497      -0.65498947       0.64260836
H       -2.43311707       0.67328779      -0.65473579
C       -0.91132561       0.90220522       0.91563759
C       -0.01476271      -0.02253852       1.78660255
H       -0.67934791      -0.69751639       2.42135241
H        0.63392994       0.61504881       2.47327442
C        0.01484550      -1.77751727      -0.01636693
H        0.67870853      -2.42144646      -0.68295456
H       -0.62264859      -2.45592969       0.64226336
C        1.78714474       0.01002794       0.00389507
H        2.44202412       0.67113390       0.66197326
H        2.45385902      -0.65136977      -0.64189061
C        0.91606151      -0.90478549       0.90901405
