153
Properties=species:S:1:pos:R:3 pbc="F F F"
C        0.00000000       0.00000000       0.00000000
C        0.88140359       0.88140359      -0.88140359
C        2.07017939       1.39676437      -0.37630291
C        2.88104860       2.19857557      -1.18579261
C        2.51762991       2.49652813      -2.51277442
C        1.29734295       1.97759607      -2.99104515
C        0.48941784       1.16947094      -2.18501583
C        3.38002392       3.37629897      -3.43053181
H        2.75093379       4.21058906      -3.76128587
N        3.72651179       2.67146480      -4.66471111
C        4.74044255       1.71894849      -4.52506648
C        4.83639201       0.65195324      -5.42552581
C        5.87869456      -0.27341018      -5.32543064
C        6.85510191      -0.12247610      -4.34326080
C        6.79817254       0.96507065      -3.47333086
C        5.74900934       1.88817466      -3.57665874
C        5.71483942       3.09414877      -2.71541515
O        6.66611967       3.27021459      -1.95423970
N        4.58752803       3.92733238      -2.81920304
C        4.53755731       5.22083537      -2.17714326
C        5.71473459       5.92554348      -1.87297723
C        5.68420843       7.18633868      -1.26250727
C        4.46573246       7.77390663      -0.95287451
Br       4.41650215       9.47439094      -0.13270706
C        3.28161353       7.11072813      -1.24882646
C        3.31921693       5.84719183      -1.85566783
H        2.37995367       1.18294179       0.64384933
H        3.80183812       2.58615585      -0.75243600
H        0.96150742       2.19645245      -4.00250384
H       -0.44062189       0.77145799      -2.58289468
H        2.91743896       2.30461017      -5.15156537
H        4.09661746       0.52757355      -6.21196091
H        5.93300417      -1.10659442      -6.02194037
H        7.67062844      -0.83741311      -4.26819694
H        7.57817010       1.10260300      -2.72792509
H        6.69382607       5.52572802      -2.12511578
H        6.62048471       7.69252319      -1.04229895
H        2.32154588       7.55963309      -1.00706140
H        2.35978130       5.36995130      -2.02913679
C       -0.88140359      -0.88140359      -0.88140359
C       -0.33331480      -1.52335452      -1.98657734
C       -1.13904434      -2.33623853      -2.79013390
C       -2.50425871      -2.52160496      -2.50106878
C       -3.03705261      -1.84211461      -1.38681696
C       -2.23065391      -1.03507723      -0.57817348
C       -3.42139284      -3.40321115      -3.36225071
H       -4.25006898      -2.77123434      -3.70150539
N       -4.06338413      -4.44223553      -2.55706804
C       -3.23439429      -5.51968350      -2.23037972
C       -3.50616716      -6.30402639      -1.10367750
C       -2.71453157      -7.41509169      -0.80109176
C       -1.66215813      -7.77275932      -1.64096915
C       -1.41409205      -7.02905896      -2.79342304
C       -2.20947414      -5.91422126      -3.09014734
C       -2.01406605      -5.15946180      -4.35087549
O       -1.16810071      -5.58521449      -5.13725876
N       -2.79306912      -4.00429082      -4.53670351
C       -2.82714640      -3.30672447      -5.80166507
C       -2.53636385      -3.97202129      -7.00487016
C       -2.57739527      -3.31429362      -8.24136549
C       -2.92327070      -1.97153956      -8.29770334
Br      -2.98366331      -1.07897548      -9.96096136
C       -3.22724710      -1.28473087      -7.12919014
C       -3.17988052      -1.94768770      -5.89450837
H        0.71834473      -1.40231374      -2.23507711
H       -0.67357293      -2.81838960      -3.64846744
H       -4.09104894      -1.93570733      -1.13370743
H       -2.66402883      -0.53253644       0.28283449
H       -4.55117560      -4.07262101      -1.74981789
H       -4.33511626      -6.05445271      -0.44658297
H       -2.92706464      -8.00710825       0.08582277
H       -1.04951075      -8.64088310      -1.41101842
H       -0.61420211      -7.32703478      -3.46746132
H       -2.29293850      -5.03152843      -7.02020295
H       -2.34082914      -3.86864815      -9.14582956
H       -3.49549343      -0.23176870      -7.16097824
H       -3.39602137      -1.34478820      -5.01805983
C       -0.88140359       0.88140359       0.88140359
C       -1.13605257       0.51005336       2.19714074
C       -1.93785030       1.32084193       3.00672454
C       -2.49622880       2.51583868       2.51486498
C       -2.23811963       2.85634256       1.17152199
C       -1.43030858       2.05029691       0.36329913
C       -3.38462913       3.42987243       3.37235315
H       -4.34137378       3.53356297       2.84787196
N       -2.84923742       4.79032130       3.42312898
C       -1.75440440       4.95261437       4.27743874
C       -0.84588441       5.99689597       4.07109066
C        0.21994298       6.19864776       4.95201024
C        0.36936773       5.37767717       6.06757716
C       -0.55874962       4.36670596       6.31111848
C       -1.62385736       4.16730760       5.42267778
C       -2.66586970       3.15197373       5.70655991
O       -2.58057036       2.53921816       6.77078544
N       -3.65416134       2.95284466       4.72705745
C       -4.81963849       2.13675422       4.97914323
C       -5.29362546       1.93327261       6.28635723
C       -6.42959567       1.15578099       6.54767771
C       -7.12328725       0.57235963       5.49686672
Br      -8.65706388      -0.47446644       5.84100271
C       -6.68948954       0.76087884       4.19079973
C       -5.54926043       1.53636501       3.93645115
H       -0.71741549      -0.40580324       2.60743388
H       -2.11688795       0.99369109       4.02985093
H       -2.66389837       3.75875154       0.73781380
H       -1.23658543       2.34274823      -0.66560288
H       -2.68355008       5.18505413       2.50501029
H       -0.95620837       6.66161199       3.21833156
H        0.92757836       7.00425454       4.77167394
H        1.19388918       5.53743920       6.75786225
H       -0.46234250       3.74678585       7.19956985
H       -4.80739034       2.39522004       7.14205949
H       -6.75708715       1.02273990       7.57547980
H       -7.22269982       0.30530277       3.36023778
H       -5.24564703       1.61593182       2.89729055
C        0.88140359      -0.88140359       0.88140359
C        2.26473319      -0.83005175       0.74846172
C        3.07252816      -1.63237154       1.56051708
C        2.51090458      -2.49708926       2.51893861
C        1.10543321      -2.54346291       2.61708806
C        0.29692805      -1.73608077       1.81089580
C        3.36517956      -3.39591100       3.42576415
H        3.03680258      -4.42800445       3.25800168
N        3.07625833      -3.14815501       4.83827436
C        3.64987684      -1.98159044       5.35299024
C        3.09012977      -1.35279902       6.47094226
C        3.68868505      -0.21777257       7.02425741
C        4.87226097       0.28122756       6.48485320
C        5.46626968      -0.36699532       5.40330905
C        4.85991804      -1.50307216       4.85085255
C        5.51677117      -2.25346971       3.75416247
O        6.62887273      -1.86737037       3.39433087
N        4.80689847      -3.33083057       3.19633442
C        5.42472566      -4.24624503       2.26456526
C        6.81628437      -4.44207091       2.25490002
C        7.43051479      -5.33533697       1.36720261
C        6.65648639      -6.06226875       0.47375846
Br       7.47693330      -7.27040931      -0.72374245
C        5.27673803      -5.90196319       0.46246690
C        4.66870149      -5.00300835       1.35036676
H        2.72920661      -0.17069719       0.01914232
H        4.15080482      -1.56631492       1.42331023
H        0.62209337      -3.21090412       3.32746621
H       -0.78407452      -1.78187597       1.91592932
H        2.09061148      -3.22319382       5.05980920
H        2.17834034      -1.73805174       6.91975985
H        3.23509449       0.27026981       7.88352544
H        5.34317662       1.16001149       6.91824714
H        6.40778403       0.00171231       5.00262649
H        7.46483082      -3.92329455       2.95654450
H        8.51089611      -5.45121819       1.39319255
H        4.66093700      -6.46311530      -0.23581193
H        3.59122384      -4.90117338       1.26647218
