190
Properties=species:S:1:pos:R:3 pbc="F F F"
O        7.09481735       5.20393356      -7.69057181
C        6.37003001       4.36984282      -7.14447530
N        5.66401698       4.70657358      -6.00583922
N        4.81326595       3.76963059      -5.35613655
C        4.29800359       4.26453630      -4.22386305
H        4.50209707       5.25243910      -3.82146736
C        3.42708826       3.40199324      -3.40634650
C        2.71011395       2.32812239      -3.95439518
C        1.89552762       1.52323385      -3.15398120
C        1.79235461       1.79235461      -1.79235461
C        2.48909924       2.85899824      -1.22795952
C        3.29921836       3.66283258      -2.03644892
C        6.17788878       2.93584098      -7.62918861
S        7.13580362       2.54675291      -9.13494790
C        6.63615989       0.82933713      -9.30863073
C        5.48465034       0.58194806     -10.05638904
C        5.07262953      -0.72772399     -10.23258946
C        3.82559927      -1.02611444     -11.00881735
N        5.74579704      -1.77917655      -9.71484122
C        6.84957822      -1.54490843      -8.98703396
C        7.51838075      -2.64034365      -8.45662731
C        8.67143778      -2.50050310      -7.68121332
C        9.16896117      -1.23121791      -7.42795104
C        8.52405899      -0.11246846      -7.94884827
C        7.35428271      -0.24946449      -8.74015892
H        5.76406257       5.63838986      -5.62608912
H        2.79372453       2.11853282      -5.01855834
H        1.35895741       0.69643069      -3.60751276
H        2.41828184       3.07275677      -0.16656432
H        3.85121643       4.48692185      -1.59276330
H        5.11749546       2.77882872      -7.85108040
H        6.49765587       2.25213205      -6.83623348
H        4.91471552       1.39969521     -10.48705647
H        3.88298918      -0.58182187     -12.00736195
H        2.95147677      -0.62578408     -10.48596138
H        3.68903609      -2.10610300     -11.12608941
H        7.12502005      -3.63560924      -8.65068734
H        9.16093319      -3.38393579      -7.28223377
H        8.92447139       0.87596055      -7.73289742
C       10.35458048      -1.07403537      -6.62595322
C       11.34753665      -0.94239500      -5.95428005
Br      12.95306280      -0.72954364      -4.86824134
O       -7.01471657      -5.22520135      -7.74940481
C       -6.28076426      -4.39702204      -7.20656184
N       -5.62219560      -4.71864606      -6.03558812
N       -4.76232691      -3.78831657      -5.38838961
C       -4.29924801      -4.26216409      -4.22499084
H       -4.54784721      -5.22958141      -3.79857491
C       -3.42692578      -3.40134565      -3.40715656
C       -2.65860059      -2.36889840      -3.96513254
C       -1.84388350      -1.56445995      -3.16439923
C       -1.79235461      -1.79235461      -1.79235461
C       -2.54075008      -2.81768740      -1.21761952
C       -3.35071644      -3.62147527      -2.02630815
C       -6.02703826      -2.98625738      -7.72962273
S       -6.92401124      -2.61632657      -9.27716661
C       -6.36367550      -0.92200886      -9.48844340
C       -5.18180612      -0.73534123     -10.20584010
C       -4.72215885       0.55432199     -10.40965814
C       -3.44231600       0.78801209     -11.15399828
N       -5.37678748       1.64266685      -9.94734110
C       -6.50992420       1.46695885      -9.24873840
C       -7.15916267       2.59951508      -8.77501682
C       -8.33995661       2.52123241      -8.03342379
C       -8.88613077       1.27710385      -7.75666737
C       -8.26182389       0.12231716      -8.22093207
C       -7.06392038       0.19671668      -8.97777345
H       -5.76432089      -5.63403999      -5.63018067
H       -2.70187024      -2.19143427      -5.03751119
H       -1.26676849      -0.77008913      -3.62604324
H       -2.51030883      -2.99900392      -0.14829018
H       -3.94284595      -4.41296955      -1.57508608
H       -4.95565646      -2.86994179      -7.92180633
H       -6.34921468      -2.26745754      -6.96934918
H       -4.62545678      -1.58414779     -10.59186264
H       -3.48267770       0.31356746     -12.13941901
H       -2.59851629       0.37758229     -10.59072008
H       -3.26715237       1.85879830     -11.30066843
H       -6.72779978       3.57509989      -8.98739826
H       -8.81282059       3.43210023      -7.67851081
H       -8.70069753      -0.84550586      -7.98712597
C      -10.10085230       1.18338335      -6.98902938
C      -11.11818158       1.10489243      -6.34613256
Br     -12.76311697       0.97797926      -5.30662278
O       -5.67358891       8.13319355       6.18254026
C       -4.92383631       7.59487212       5.36563970
N       -4.96030520       6.22500042       5.19112416
N       -4.11371049       5.57400332       4.25131928
C       -4.23927527       4.24215317       4.30497451
H       -4.88995705       3.70067379       4.98537269
C       -3.39686858       3.41575799       3.42280142
C       -2.86858555       3.90504142       2.21900456
C       -2.06811829       3.10023025       1.40439413
C       -1.79235461       1.79235461       1.79235461
C       -2.31334455       1.28269586       2.98001659
C       -3.11730877       2.09310212       3.78808897
C       -3.91150748       8.33502139       4.49638949
S       -3.90592791      10.14084755       4.77072897
C       -2.60581226      10.56382618       3.60448931
C       -2.99976178      10.83027286       2.29295280
C       -2.03412441      11.17888942       1.36448117
C       -2.42073206      11.44634361      -0.05877349
N       -0.72346826      11.27897534       1.67901812
C       -0.33895651      11.01467611       2.93807113
C        1.01407867      11.11394255       3.23480053
C        1.51368434      10.85322727       4.51260507
C        0.63733942      10.48198632       5.52104740
C       -0.72583697      10.37749554       5.25710629
C       -1.23880229      10.64473983       3.96143502
H       -5.59920667       5.67743119       5.75190369
H       -3.08394013       4.92817475       1.91870081
H       -1.66967873       3.51074295       0.48247919
H       -2.09924924       0.26592256       3.29243112
H       -3.51306143       1.69807695       4.71976320
H       -4.15132057       8.15198207       3.44410194
H       -2.91055558       7.95338574       4.72208009
H       -4.04286385      10.75858249       2.00002086
H       -3.19037730      12.22306624      -0.10491428
H       -2.80296673      10.53221276      -0.52352541
H       -1.55786163      11.78981392      -0.63865304
H        1.70214266      11.39978380       2.44245700
H        2.57984042      10.93873364       4.70033796
H       -1.39730481      10.07712826       6.05889629
C        1.14117250      10.20614484       6.84152599
C        1.56313270       9.97512760       7.94742681
Br       2.24540666       9.60159226       9.73557490
O        6.18417549      -8.13285427       5.67229296
C        5.50013734      -7.56696661       4.81724418
N        5.22891815      -6.21715894       4.93035269
N        4.44923506      -5.53293984       3.95685819
C        4.22706090      -4.25831865       4.30102340
H        4.57586978      -3.78563728       5.21449648
C        3.39645567      -3.42122420       3.41774813
C        3.25377874      -3.69034692       2.04850587
C        2.45501608      -2.88224767       1.23547892
C        1.79235461      -1.79235461       1.79235461
C        1.92622999      -1.50133505       3.14849197
C        2.73098538      -2.31242951       3.95508497
C        4.89480906      -8.25235747       3.59575183
S        5.28393345     -10.03436811       3.49920287
C        4.38533305     -10.40181706       1.98697764
C        5.08324567     -10.25134411       0.78839767
C        4.43663623     -10.54148003      -0.40062126
C        5.14982045     -10.36566681      -1.70718508
N        3.15645842     -10.97243667      -0.44743337
C        2.47835883     -11.11005702       0.70328790
C        1.16128620     -11.54415440       0.62922381
C        0.37122204     -11.71247961       1.76844634
C        0.91178398     -11.43831428       3.01559604
C        2.23072568     -11.00540767       3.12430545
C        3.03859843     -10.83620956       1.97016915
H        5.58858126      -5.71131725       5.72864304
H        3.77118910      -4.54382129       1.61580531
H        2.36046201      -3.12109989       0.18133896
H        1.40920999      -0.65665246       3.59174047
H        2.82491614      -2.09121899       5.01476645
H        5.28389685      -7.77026223       2.69324551
H        3.80624784      -8.14340221       3.63637135
H        6.11245278      -9.90533691       0.78367751
H        6.08176192     -10.93945736      -1.71269003
H        5.37683401      -9.30800877      -1.87318870
H        4.53080606     -10.71725680      -2.53904035
H        0.73557339     -11.75392727      -0.34940252
H       -0.65571856     -12.05000590       1.66494383
H        2.63523144     -10.78746875       4.11062917
C        0.10555638     -11.60372087       4.19722108
C       -0.56965923     -11.74224889       5.18683205
Br      -1.66142577     -11.96623698       6.78694928
C       -0.00445707       0.01189536      -1.78238275
H       -0.66409135       0.67374010      -2.43557963
H        0.65740317      -0.63156657      -2.45157240
C       -0.90989263      -0.90692880      -0.91072765
C        0.90977584       0.90977584      -0.90977584
C       -0.00465871       1.77757030       0.00794375
H       -0.66225468       2.44313916      -0.64384735
H        0.64322798       2.43503045       0.67728295
C       -1.78241447       0.00034974      -0.00472694
H       -2.45427497      -0.65498947       0.64260836
H       -2.43311707       0.67328779      -0.65473579
C       -0.91132561       0.90220522       0.91563759
C       -0.01476271      -0.02253852       1.78660255
H       -0.67934791      -0.69751639       2.42135241
H        0.63392994       0.61504881       2.47327442
C        0.01484550      -1.77751727      -0.01636693
H        0.67870853      -2.42144646      -0.68295456
H       -0.62264859      -2.45592969       0.64226336
C        1.78714474       0.01002794       0.00389507
H        2.44202412       0.67113390       0.66197326
H        2.45385902      -0.65136977      -0.64189061
C        0.91606151      -0.90478549       0.90901405
