182
Properties=species:S:1:pos:R:3 pbc="F F F"
O        7.09481735       5.20393356      -7.69057181
C        6.37003001       4.36984282      -7.14447530
N        5.66401698       4.70657358      -6.00583922
N        4.81326595       3.76963059      -5.35613655
C        4.29800359       4.26453630      -4.22386305
H        4.50209707       5.25243910      -3.82146736
C        3.42708826       3.40199324      -3.40634650
C        2.71011395       2.32812239      -3.95439518
C        1.89552762       1.52323385      -3.15398120
C        1.79235461       1.79235461      -1.79235461
C        2.48909924       2.85899824      -1.22795952
C        3.29921836       3.66283258      -2.03644892
C        6.17788878       2.93584098      -7.62918861
S        7.13580362       2.54675291      -9.13494790
C        6.63615989       0.82933713      -9.30863073
C        5.48465034       0.58194806     -10.05638904
C        5.07262953      -0.72772399     -10.23258946
C        3.82559927      -1.02611444     -11.00881735
N        5.74579704      -1.77917655      -9.71484122
C        6.84957822      -1.54490843      -8.98703396
C        7.51838075      -2.64034365      -8.45662731
C        8.67143778      -2.50050310      -7.68121332
C        9.16896117      -1.23121791      -7.42795104
Br      10.72462335      -1.02497723      -6.37564221
C        8.52405899      -0.11246846      -7.94884827
C        7.35428271      -0.24946449      -8.74015892
H        5.76406257       5.63838986      -5.62608912
H        2.79372453       2.11853282      -5.01855834
H        1.35895741       0.69643069      -3.60751276
H        2.41828184       3.07275677      -0.16656432
H        3.85121643       4.48692185      -1.59276330
H        5.11749546       2.77882872      -7.85108040
H        6.49765587       2.25213205      -6.83623348
H        4.91471552       1.39969521     -10.48705647
H        3.88298918      -0.58182187     -12.00736195
H        2.95147677      -0.62578408     -10.48596138
H        3.68903609      -2.10610300     -11.12608941
H        7.12502005      -3.63560924      -8.65068734
H        9.16093319      -3.38393579      -7.28223377
H        8.92447139       0.87596055      -7.73289742
O       -6.48230619      -5.46466941      -8.04234712
C       -5.69272836      -4.68312035      -7.50849942
N       -5.34569250      -4.84902894      -6.18170833
N       -4.43160001      -3.96913956      -5.53829353
C       -4.30441272      -4.24715420      -4.23483602
H       -4.83564126      -5.03358698      -3.70677530
C       -3.42479488      -3.39801220      -3.41262092
C       -2.35743431      -2.67273615      -3.96246107
C       -1.54248010      -1.87098529      -3.15927728
C       -1.79235461      -1.79235461      -1.79235461
C       -2.84207188      -2.51068331      -1.22330182
C       -3.65089049      -3.31444661      -2.03316276
C       -5.04013992      -3.49454082      -8.20823762
S       -5.53657590      -3.32325815      -9.95767038
C       -4.58346061      -1.84899807     -10.34166908
C       -3.27991990      -2.04426597     -10.79880158
C       -2.51491471      -0.93769996     -11.12488033
C       -1.10216065      -1.11167756     -11.59446398
N       -2.98269879       0.32642406     -11.02518699
C       -4.23371427       0.51917300     -10.57716248
C       -4.68853202       1.82721323     -10.47334562
C       -5.97123113       2.13150008     -10.01241695
C       -6.82215310       1.10049066      -9.64403186
Br      -8.55854068       1.49603250      -9.01278015
C       -6.39788895      -0.22221846      -9.74033139
C       -5.09690850      -0.53672522     -10.21134342
H       -5.75952394      -5.60959550      -5.65942211
H       -2.16514976      -2.73427981      -5.03138612
H       -0.72884035      -1.31762945      -3.61643107
H       -3.04695157      -2.45118796      -0.15946339
H       -4.47638281      -3.86465554      -1.58986323
H       -3.95320137      -3.61996562      -8.17423759
H       -5.32591300      -2.57804938      -7.68205903
H       -2.86661523      -3.04413680     -10.89071518
H       -1.06833748      -1.77874836     -12.46144341
H       -0.48752525      -1.53181332     -10.79231551
H       -0.66883693      -0.15050398     -11.88968160
H       -4.01917016       2.63615800     -10.75708598
H       -6.28508863       3.16875836      -9.94290090
H       -7.07659055      -1.01758730      -9.43915151
O       -5.66284788       8.13031180       6.19616305
C       -4.91155703       7.59235419       5.38043691
N       -4.95461110       6.22368893       5.19812975
N       -4.10642095       5.57319984       4.25941230
C       -4.23962369       4.24179079       4.30498846
H       -4.89704425       3.70018400       4.97877528
C       -3.39690822       3.41561441       3.42290537
C       -2.85926828       3.90859175       2.22477150
C       -2.05874655       3.10385870       1.41013742
C       -1.79235461       1.79235461       1.79235461
C       -2.32272457       1.27905111       2.97428133
C       -3.12667604       2.08943452       3.78238930
C       -3.89035778       8.33166088       4.52089970
S       -3.87634160      10.13588808       4.80527475
C       -2.56746653      10.55807578       3.64858544
C       -2.95266234      10.83393101       2.33639409
C       -1.97998379      11.18230244       1.41520877
C       -2.35721292      11.45974051      -0.00865124
N       -0.67055989      11.27338333       1.73751850
C       -0.29449870      11.00001723       2.99718782
C        1.05739715      11.09014187       3.30191969
C        1.54846452      10.81961801       4.58099451
C        0.66450750      10.44768677       5.58251503
Br       1.31396832      10.07254375       7.31671289
C       -0.69773987      10.35221338       5.31048555
C       -1.20203141      10.62943865       4.01350707
H       -5.59962201       5.67658677       5.75233277
H       -3.06730919       4.93454390       1.92896260
H       -1.65294350       3.51723330       0.49272407
H       -2.11597497       0.25939899       3.28222896
H       -3.52976098       1.69147826       4.70966233
H       -4.12533802       8.15575960       3.46630697
H       -2.89279240       7.94324215       4.74998686
H       -3.99450355      10.76964210       2.03732155
H       -3.12229565      12.24096145      -0.05472785
H       -2.74189973      10.55031989      -0.48056553
H       -1.48925946      11.80161341      -0.58185037
H        1.75140982      11.37652837       2.51497959
H        2.61401855      10.89817477       4.77507495
H       -1.37528939      10.05115718       6.10688280
O        5.68301080      -8.13559180       6.17072012
C        4.93460053      -7.59694155       5.35280605
N        4.96529804      -6.22608462       5.18504711
N        4.12009441      -5.57463333       4.24430535
C        4.23897373      -4.24247004       4.30495917
H        4.88376177      -3.70116163       4.99108013
C        3.39683521      -3.41588266       3.42271013
C        2.87670408      -3.90188379       2.21404367
C        2.07628376      -3.09700449       1.39945442
C        1.79235461      -1.79235461       1.79235461
C        2.30517198      -1.28593581       2.98494921
C        3.10914756      -2.09636174       3.79299057
C        3.93003888      -8.33774046       4.47513903
S        3.93185380     -10.14487501       4.74077562
C        2.63940777     -10.56845956       3.56626043
C        3.04093010     -10.82668180       2.25537555
C        2.08145436     -11.17544721       1.32059343
C        2.47617620     -11.43417325      -0.10204726
N        0.76980132     -11.28334051       1.62831989
C        0.37797886     -11.02696718       2.88675770
C       -0.97597068     -11.13415858       3.17647651
C       -1.48295712     -10.88201213       4.45309299
C       -0.61326484     -10.51143732       5.46752182
Br      -1.28439774     -10.16104358       7.19864249
C        0.75064306     -10.39913119       5.21066455
C        1.27110612     -10.65765617       3.91621485
H        5.59885095      -5.67816600       5.75152461
H        3.09843108      -4.92251083       1.90987378
H        1.68425981      -3.50497317       0.47366789
H        2.08467677      -0.27172102       3.30120514
H        3.49851253      -1.70394020       4.72844884
H        4.17401537      -8.14847774       3.42491148
H        2.92618561      -7.96200788       4.69782793
H        4.08506851     -10.74857212       1.96782658
H        3.24977210     -12.20696030      -0.14820314
H        2.85622341     -10.51598650      -0.56055583
H        1.61776663     -11.77898078      -0.68772491
H       -1.65883584     -11.41947422       2.37945976
H       -2.54957731     -10.97354068       4.63526781
H        1.41679703     -10.09941511       6.01711722
C       -0.00445707       0.01189536      -1.78238275
H       -0.66409135       0.67374010      -2.43557963
H        0.65740317      -0.63156657      -2.45157240
C       -0.90989263      -0.90692880      -0.91072765
C        0.90977584       0.90977584      -0.90977584
C       -0.00465871       1.77757030       0.00794375
H       -0.66225468       2.44313916      -0.64384735
H        0.64322798       2.43503045       0.67728295
C       -1.78241447       0.00034974      -0.00472694
H       -2.45427497      -0.65498947       0.64260836
H       -2.43311707       0.67328779      -0.65473579
C       -0.91132561       0.90220522       0.91563759
C       -0.01476271      -0.02253852       1.78660255
H       -0.67934791      -0.69751639       2.42135241
H        0.63392994       0.61504881       2.47327442
C        0.01484550      -1.77751727      -0.01636693
H        0.67870853      -2.42144646      -0.68295456
H       -0.62264859      -2.45592969       0.64226336
C        1.78714474       0.01002794       0.00389507
H        2.44202412       0.67113390       0.66197326
H        2.45385902      -0.65136977      -0.64189061
C        0.91606151      -0.90478549       0.90901405
