173
Properties=species:S:1:pos:R:3 pbc="F F F"
C        0.00000000       0.00000000       0.00000000
O        4.30122647       6.48201904      -6.46736356
C        3.41385155       5.85468720      -5.88003003
N        3.74487226       4.84265467      -5.01318673
N        2.77465175       4.05779389      -4.33175798
C        3.33444503       3.37980167      -3.32120997
H        4.36848443       3.46211565      -3.00174471
C        2.47885973       2.51700193      -2.49696351
C        1.47529548       1.72264773      -3.06169239
C        0.67537599       0.90517770      -2.26053031
C        0.88247273       0.88247273      -0.88247273
C        1.88479793       1.65750975      -0.30282840
C        2.68612042       2.46793232      -1.11300501
C        1.94210379       6.18752289      -6.07367795
S        1.42965038       7.41113779      -4.82524733
C       -0.28238434       7.38697896      -5.03944532
N       -0.96076889       8.29954512      -5.68806456
N       -2.28781950       8.02184742      -5.51495364
C       -2.41873548       6.95203326      -4.73977086
C       -3.73874935       6.44683321      -4.30676368
C       -3.94855482       5.45477649      -3.34032922
C       -5.24432398       5.05059115      -2.98218817
C       -6.35232357       5.64937009      -3.57320915
C       -6.17920235       6.64958871      -4.51977017
C       -4.88457482       7.03825202      -4.88001444
N       -1.14121502       6.48265460      -4.46577152
C       -0.77201474       5.28888124      -3.74924837
H        4.72662866       4.66736632      -4.83884587
H        1.32708448       1.74315155      -4.13936434
H       -0.09479989       0.29827275      -2.72409710
H        2.05160563       1.64611523       0.76932303
H        3.46318268       3.08126430      -0.66301796
H        1.32625312       5.28460300      -6.03888411
H        1.81722719       6.61702557      -7.07328823
H       -3.12899575       4.97377232      -2.82124181
H       -5.37069643       4.27245906      -2.23361235
H       -7.03170781       7.13856998      -4.98267529
H       -4.77090301       7.83075553      -5.62084086
H        0.27212992       5.03869755      -3.91348791
H       -1.37339025       4.45463453      -4.11955079
H       -0.93459497       5.45960222      -2.68272223
C       -7.67999682       5.23812048      -3.19670217
C       -8.79192316       4.89369893      -2.88137757
Br     -10.58981401       4.33679841      -2.37152437
O       -5.02642634      -7.19920404      -5.02497870
C       -4.21161113      -6.68509465      -4.25186300
N       -4.05062686      -5.32174112      -4.22834568
N       -3.10715421      -4.66730515      -3.38974427
C       -3.36895634      -3.35603729      -3.31046304
H       -4.22256395      -2.85448804      -3.75529280
C       -2.49813737      -2.51641767      -2.47827012
C       -1.11065996      -2.69371792      -2.45525772
C       -0.29950770      -1.88122021      -1.66035608
C       -0.88247273      -0.88247273      -0.88247273
C       -2.26127268      -0.68275051      -0.90111287
C       -3.06568292      -1.49604314      -1.70533169
C       -3.38231113      -7.52707320      -3.29392030
S       -4.26727268      -7.68885360      -1.70990921
C       -3.03329256      -8.38548371      -0.72526367
N       -2.96837821      -9.65319066      -0.40527192
N       -1.95306711      -9.79467384       0.49875940
C       -1.41382574      -8.60742664       0.74818374
C       -0.33888089      -8.42173258       1.74576593
C        0.13784235      -7.18593620       2.20154296
C        1.15446942      -7.10949332       3.16656855
C        1.69613490      -8.27203431       3.70564374
C        1.23193839      -9.51233598       3.29024105
C        0.22707770      -9.58016003       2.31939069
N       -2.04922154      -7.68542275      -0.07256681
C       -1.74309331      -6.28738714      -0.23563442
H       -4.64989606      -4.76141064      -4.82153414
H       -0.66579578      -3.47202025      -3.07178434
H        0.77355389      -2.03912779      -1.66199607
H       -2.72279612       0.09198649      -0.29758820
H       -4.14309499      -1.34915620      -1.71521375
H       -2.38227429      -7.10457521      -3.16289072
H       -3.25051517      -8.51970075      -3.73732508
H       -0.26483531      -6.24615002       1.84496695
H        1.50596962      -6.13372827       3.49238367
H        1.63265956     -10.43116235       3.70896533
H       -0.12803715     -10.56464036       2.01198413
H       -2.22158463      -5.88079367      -1.12193708
H       -0.66329528      -6.17488616      -0.36261363
H       -2.10300661      -5.74813897       0.64341610
C        2.73269437      -8.18930682       4.70178661
C        3.60081293      -8.12002254       5.53605626
Br       5.00448722      -8.00799572       6.88499973
O       -4.30228315       6.52263475       6.42569117
C       -3.41425138       5.90094384       5.83337356
N       -3.74206789       4.86650015       4.99214562
N       -2.76997421       4.08709209       4.30713733
C       -3.33556005       3.37953247       3.32036415
H       -4.37679269       3.43632051       3.01923159
C       -2.47924918       2.51733424       2.49624175
C       -1.45027343       1.75287705       3.05648512
C       -0.65004183       0.93538957       2.25565260
C       -0.88247273       0.88247273       0.88247273
C       -1.91012040       1.62735784       0.30765783
C       -2.71145077       2.43794637       1.11766061
C       -1.94576074       6.26496032       5.99258356
S       -1.48028732       7.47388739       4.71186080
C        0.23561211       7.48593611       4.89371594
N        0.90847656       8.42329257       5.51202477
N        2.23711224       8.16727187       5.31882193
C        2.37388997       7.08548159       4.56147702
C        3.69496553       6.59694122       4.11287186
C        3.90553194       5.59070482       3.16137801
C        5.20184490       5.20411907       2.78618117
C        6.30908711       5.83475649       3.34458629
C        6.13466313       6.84945997       4.27535969
C        4.83982747       7.22059087       4.65292825
N        1.10065970       6.58707776       4.32079303
C        0.74096951       5.37311524       3.63396914
H       -4.72339170       4.66953217       4.83991697
H       -1.28229814       1.79674853       4.13055370
H        0.14014977       0.35200444       2.71571530
H       -2.09675630       1.59234917      -0.76070764
H       -3.50839445       3.02788662       0.67118387
H       -1.31352743       5.37324807       5.96296473
H       -1.81039183       6.71575459       6.98139457
H        3.08572498       5.08458374       2.66715962
H        5.32900528       4.41432958       2.05005069
H        6.98619864       7.36309941       4.71263670
H        4.72494320       8.02483670       5.38079988
H       -0.29493955       5.10657951       3.82279632
H        1.36501708       4.55752198       4.00829017
H        0.88022849       5.52644120       2.56151678
C        7.63708332       5.44135628       2.95055287
C        8.74928014       5.11188361       2.62054987
Br      10.54760835       4.57915417       2.08696294
O        6.47774646      -6.47165658       4.30120603
C        5.84982297      -5.88483480       3.41391101
N        4.84015369      -5.01534709       3.74521288
N        4.05472370      -4.33428283       2.77519711
C        3.37982755      -3.32129948       3.33432964
H        3.46480964      -2.99996228       4.36757287
C        2.51696615      -2.49703867       2.47882035
C        1.71952389      -3.06217411       1.47793759
C        0.90205638      -2.26097742       0.67805020
C        0.88247273      -0.88247273       0.88247273
C        1.66062479      -0.30238623       1.88212505
C        2.47102990      -1.11258076       2.68344709
C        6.17937326      -6.08203564       1.94189572
S        7.40443022      -4.83703213       1.42457315
C        7.37647298      -5.05455183      -0.28698487
N        8.28642072      -5.70630393      -0.96588386
N        8.00644737      -5.53525830      -2.29272411
C        6.93790512      -4.75822611      -2.42306259
C        6.43095581      -4.32682265      -3.74293091
C        5.44039157      -3.35884820      -3.95268888
C        5.03435702      -3.00246208      -5.24836376
C        5.62978475      -3.59684294      -6.35637202
C        6.62847762      -4.54503233      -6.18335343
C        7.01898382      -4.90349330      -4.88878547
N        6.47158746      -4.48078719      -1.14516355
C        5.27995746      -3.76118542      -0.77502800
H        4.66714564      -4.83872854       4.72696665
H        1.73761387      -4.14017408       1.33181242
H        0.29272214      -2.72486146      -0.09001363
H        1.65166990       0.77011188       2.04683981
H        3.08677800      -0.66227553       3.45841141
H        5.27531066      -6.04667332       1.32775625
H        6.60666021      -7.08273502       1.81814577
H        4.96202762      -2.83720073      -3.13320998
H        4.25745229      -2.25260314      -5.37468044
H        7.11486425      -5.01057832      -7.03590511
H        7.81025011      -5.64565622      -4.77521295
H        5.03151091      -3.92287542       0.26992905
H        4.44379887      -4.13102475      -1.37402855
H        5.45245658      -2.69532020      -0.94004730
C        5.21665918      -3.22213984      -7.68397318
C        4.87066651      -2.90832599      -8.79583916
Br       4.31122563      -2.40091553     -10.59363239
