165
Properties=species:S:1:pos:R:3 pbc="F F F"
C        0.00000000       0.00000000       0.00000000
O        4.30122647       6.48201904      -6.46736356
C        3.41385155       5.85468720      -5.88003003
N        3.74487226       4.84265467      -5.01318673
N        2.77465175       4.05779389      -4.33175798
C        3.33444503       3.37980167      -3.32120997
H        4.36848443       3.46211565      -3.00174471
C        2.47885973       2.51700193      -2.49696351
C        1.47529548       1.72264773      -3.06169239
C        0.67537599       0.90517770      -2.26053031
C        0.88247273       0.88247273      -0.88247273
C        1.88479793       1.65750975      -0.30282840
C        2.68612042       2.46793232      -1.11300501
C        1.94210379       6.18752289      -6.07367795
S        1.42965038       7.41113779      -4.82524733
C       -0.28238434       7.38697896      -5.03944532
N       -0.96076889       8.29954512      -5.68806456
N       -2.28781950       8.02184742      -5.51495364
C       -2.41873548       6.95203326      -4.73977086
C       -3.73874935       6.44683321      -4.30676368
C       -3.94855482       5.45477649      -3.34032922
C       -5.24432398       5.05059115      -2.98218817
C       -6.35232357       5.64937009      -3.57320915
Br      -8.09441585       5.10975330      -3.07917953
C       -6.17920235       6.64958871      -4.51977017
C       -4.88457482       7.03825202      -4.88001444
N       -1.14121502       6.48265460      -4.46577152
C       -0.77201474       5.28888124      -3.74924837
H        4.72662866       4.66736632      -4.83884587
H        1.32708448       1.74315155      -4.13936434
H       -0.09479989       0.29827275      -2.72409710
H        2.05160563       1.64611523       0.76932303
H        3.46318268       3.08126430      -0.66301796
H        1.32625312       5.28460300      -6.03888411
H        1.81722719       6.61702557      -7.07328823
H       -3.12899575       4.97377232      -2.82124181
H       -5.37069643       4.27245906      -2.23361235
H       -7.03170781       7.13856998      -4.98267529
H       -4.77090301       7.83075553      -5.62084086
H        0.27212992       5.03869755      -3.91348791
H       -1.37339025       4.45463453      -4.11955079
H       -0.93459497       5.45960222      -2.68272223
O       -6.24639486      -6.68111039      -4.32310383
C       -5.58687798      -6.11881527      -3.44287553
N       -4.70661990      -5.11886936      -3.77522439
N       -3.89147966      -4.45448176      -2.81824221
C       -3.38060978      -3.32628283      -3.32856406
H       -3.60573022      -2.91792868      -4.30868588
C       -2.51481833      -2.50091485      -2.47709198
C       -1.56461227      -3.07150706      -1.62351627
C       -0.74745282      -2.26845055      -0.82518063
C       -0.88247273      -0.88247273      -0.88247273
C       -1.81489565      -0.29514711      -1.73509331
C       -2.62435310      -1.10621764      -2.53648700
C       -5.73718151      -6.49070396      -1.97541915
S       -7.01419461      -5.43891071      -1.21293018
C       -6.78321302      -5.81585574       0.45502883
N       -7.54868868      -6.62313504       1.14498293
N       -7.14667942      -6.55167324       2.44937110
C       -6.15007017      -5.68136286       2.55836440
C       -5.54922646      -5.32738244       3.86176135
C       -4.63969363      -4.28405772       4.07720045
C       -4.13408048      -4.01274377       5.35836891
C       -4.54808662      -4.77101192       6.44884286
Br      -3.87329180      -4.39426338       8.17303820
C       -5.46365223      -5.79915720       6.27265289
C       -5.95358031      -6.07097625       4.99086492
N       -5.85144972      -5.23416766       1.27840629
C       -4.78083453      -4.35942891       0.87414856
H       -4.65701345      -4.83119613      -4.74463126
H       -1.46323607      -4.15432549      -1.59203881
H       -0.01795666      -2.73648747      -0.17312584
H       -1.92676396       0.78304139      -1.78467527
H       -3.35962569      -0.65163850      -3.19620075
H       -4.78044185      -6.41845118      -1.45084719
H       -6.05058435      -7.53847503      -1.91848161
H       -4.30379500      -3.63800165       3.27577828
H       -3.42390210      -3.20001584       5.48854295
H       -5.80936325      -6.39372957       7.11355536
H       -6.67735382      -6.87884431       4.87550475
H       -4.63075967      -4.39244041      -0.20111529
H       -3.85392691      -4.69395991       1.34709174
H       -5.03650180      -3.33886233       1.16763465
O       -4.33792173       6.17563094       6.73705641
C       -3.46082214       5.50660702       6.18113962
N       -3.78848708       4.66644257       5.14578400
N       -2.83617903       3.84260718       4.48541742
C       -3.32697088       3.38063056       3.32785523
H       -4.28731099       3.64708535       2.89794846
C       -2.47670584       2.51408722       2.50203210
C       -1.66893190       1.52225472       3.06844898
C       -0.87100513       0.70525020       2.26482867
C       -0.88247273       0.88247273       0.88247273
C       -1.68930833       1.85699909       0.29882865
C       -2.49075783       2.66616599       1.11013392
C       -2.00148260       5.60160775       6.60021427
S       -1.17053022       6.88529022       5.61021506
C        0.47781471       6.59314520       6.02870945
N        1.16522013       7.31348162       6.87857930
N        2.45883648       6.87456349       6.83325455
C        2.56480405       5.90103727       5.93683542
C        3.86013095       5.27176504       5.60321345
C        4.08022091       4.38709377       4.53967803
C        5.35363383       3.85121739       4.29087178
C        6.43238960       4.20974571       5.09289956
Br       8.14666374       3.49455784       4.74662288
C        6.25214876       5.09970474       6.14260055
C        4.97764223       5.61991383       6.39142004
N        1.29072518       5.65439902       5.44353726
C        0.88186179       4.62254840       4.52542827
H       -4.74980940       4.65455558       4.82847586
H       -1.67312346       1.38830417       4.14817274
H       -0.25501516      -0.05698340       2.72953821
H       -1.70303765       2.00184314      -0.77648295
H       -3.11463687       3.43400785       0.65882023
H       -1.50321612       4.63200255       6.51452156
H       -1.96703082       5.88232764       7.65818254
H        3.28916313       4.09459575       3.86058575
H        5.48741514       3.16154310       3.46124703
H        7.08449273       5.40232313       6.77170707
H        4.85920652       6.32286659       7.21703331
H       -0.19784253       4.50408350       4.52238935
H        1.31714496       3.67239251       4.84554751
H        1.21337011       4.89902512       3.52207447
O        5.21662272      -7.18368617       4.85030019
C        4.42476141      -6.67109465       4.05271272
N        4.14753871      -5.32828425       4.12489069
N        3.22092018      -4.68097524       3.26230821
C        3.37252894      -3.35101167       3.31191607
H        4.14044931      -2.82330100       3.86859448
C        2.50133388      -2.51455015       2.47694114
C        1.14104573      -2.80013282       2.31845705
C        0.32846924      -1.98906629       1.52354847
C        0.88247273      -0.88247273       0.88247273
C        2.23253488      -0.57494208       1.03765911
C        3.03773756      -1.38815504       1.84116515
C        3.75201173      -7.48998043       2.96131246
S        4.77221008      -7.44089175       1.45293366
C        3.68707834      -8.14565847       0.31130314
N        3.75925293      -9.38161077      -0.11402291
N        2.83619431      -9.52463464      -1.11184739
C        2.21696283      -8.36733161      -1.31122580
C        1.21359198      -8.18210627      -2.38085071
C        0.66877909      -6.95351934      -2.77574754
C       -0.26974704      -6.87493073      -3.81672835
C       -0.66253255      -8.02562630      -4.49283808
Br      -1.91741711      -7.91285005      -5.90091596
C       -0.12651747      -9.25616168      -4.13948768
C        0.79910332      -9.32764809      -3.09305976
N        2.70121113      -7.47257511      -0.36657514
C        2.26183734      -6.12332063      -0.11904309
H        4.64585214      -4.77563603       4.81135267
H        0.71785263      -3.66262375       2.82912399
H       -0.72330884      -2.23227165       1.41860716
H        2.67153579       0.28421072       0.54107276
H        4.09387307      -1.15655045       1.95704143
H        2.73263227      -7.13941427       2.77769369
H        3.67233768      -8.52496294       3.31024038
H        0.95772119      -6.01920963      -2.31091245
H       -0.67792452      -5.90583476      -4.09253526
H       -0.41035391     -10.16406587      -4.66417449
H        1.21311231     -10.30349656      -2.83591550
H        2.63011169      -5.75867316       0.83553053
H        1.16963740      -6.10953951      -0.07838184
H        2.64270098      -5.48205419      -0.91702569
