173
Properties=species:S:1:pos:R:3 pbc="F F F"
C        0.00000000       0.00000000       0.00000000
O        6.41690520      -2.39104223      -5.28122131
C        5.38852168      -2.22293817      -4.62009850
N        5.16165831      -0.98746155      -4.05546052
N        4.02137991      -0.66668140      -3.38421716
C        3.92084259       0.59095351      -3.08731616
C        2.76657654       1.14073778      -2.35348660
C        2.50600944       2.51236243      -2.45203771
C        1.41934131       3.06288286      -1.77104866
C        0.60760356       2.24716365      -0.98127583
C        0.88179879       0.88179879      -0.88179879
C        1.95373702       0.31753098      -1.57093521
C        4.30160723      -3.26715028      -4.42140633
S        4.74556643      -4.88256527      -5.14215018
C        6.13302250      -5.27674392      -4.18528024
N        6.33249865      -4.90457950      -2.94728986
N        7.53974424      -5.41945376      -2.55329865
C        8.05289798      -6.12485765      -3.54950079
C        9.33311619      -6.84147385      -3.47016105
C       10.34033724      -6.33165653      -2.63319787
C       11.56382086      -6.99263066      -2.48418416
C       11.79271784      -8.17751249      -3.17588636
C       10.80684297      -8.70888160      -4.00301888
C        9.57879753      -8.04881675      -4.13913554
N        7.19098870      -6.02496435      -4.62698779
C        7.39535966      -6.53727594      -5.95715418
H        5.89141909      -0.29760983      -4.20034662
H        4.69459515       1.32163259      -3.39097201
H        3.12942228       3.15639320      -3.06757434
H        1.20380244       4.12601107      -1.85482933
H       -0.23332524       2.68407443      -0.44669101
H        2.16681269      -0.74515777      -1.48895969
H        3.39965600      -2.91865316      -4.93450485
H        4.07872201      -3.38749726      -3.35701540
H       10.16796878      -5.41080789      -2.07588245
H       12.31931520      -6.57819734      -1.82186122
H       10.97420005      -9.64342092      -4.53248839
H        8.81671486      -8.51913256      -4.75224460
H        6.80782693      -5.97448290      -6.68509739
H        7.08687330      -7.58569878      -5.97196475
H        8.44894647      -6.43671479      -6.22805828
C       13.04737994      -8.86754281      -3.02330462
C       14.09815944      -9.44544321      -2.89551741
Br      15.79718102     -10.37985927      -2.68889630
O       -7.33116222      -4.07721500       2.10129295
C       -6.37647854      -3.31903517       1.90983170
N       -5.50879672      -3.59830590       0.87744533
N       -4.47762211      -2.78338121       0.52208765
C       -3.89094826      -3.12668470      -0.58147930
C       -2.74629827      -2.38019152      -1.13431113
C       -2.45444184      -2.51994828      -2.49601946
C       -1.37862846      -1.82466435      -3.04998001
C       -0.58818936      -1.00684284      -2.24101084
C       -0.88179879      -0.88179879      -0.88179879
C       -1.96391867      -1.55752676      -0.32075778
C       -6.10529495      -2.04608809       2.69551976
S       -7.26690181      -1.82174507       4.08349554
C       -6.87453509      -3.20876510       5.04174136
N       -5.69979643      -3.78051010       5.10509752
N       -5.80434247      -4.83868955       5.96944288
C       -7.03878388      -4.88501119       6.44625396
C       -7.50228133      -5.88122999       7.42170793
C       -6.90722452      -7.15434374       7.41968967
C       -7.27683745      -8.12981216       8.35127525
C       -8.25186500      -7.83891769       9.29969097
C       -8.84889249      -6.58148934       9.32940157
C       -8.46615646      -5.60439840       8.40143854
N       -7.76377758      -3.87266882       5.84343426
C       -9.17441596      -3.61427362       5.97345169
H       -5.70405317      -4.44709315       0.35699044
H       -4.23754838      -3.99286751      -1.17678385
H       -3.06592643      -3.15119349      -3.13626989
H       -1.15528748      -1.91871981      -4.11063555
H        0.25382987      -0.47369403      -2.67757603
H       -2.18811329      -1.46090843       0.73840711
H       -6.23851621      -1.19594392       2.01895243
H       -5.07760904      -2.04155787       3.07092677
H       -6.13274414      -7.38996348       6.68966428
H       -6.79124841      -9.10190075       8.33017007
H       -9.59908580      -6.34340828      10.07922655
H       -8.91657445      -4.62073719       8.48748473
H       -9.55192559      -3.07133013       5.10481431
H       -9.33176654      -3.01561272       6.87423998
H       -9.71388128      -4.56223626       6.03582757
C       -8.63384069      -8.83559694      10.26629588
C       -8.95374533      -9.67031581      11.07582750
Br      -9.47100407     -11.01998562      12.38477165
O       -6.47216639       5.21731001      -2.38239213
C       -5.64484475       4.32365286      -2.18281559
N       -4.89339936       4.36571039      -1.02945247
N       -4.01878012       3.38722389      -0.66708835
C       -3.54594411       3.52089799       0.53227017
C       -2.57754138       2.57211167       1.11114787
C       -2.45231541       2.51413653       2.50395763
C       -1.54592106       1.62465522       3.08269655
C       -0.75622022       0.80939601       2.27042681
C       -0.88179879       0.88179879       0.88179879
C       -1.79573568       1.75366870       0.29279883
C       -5.42206561       3.12556117      -3.09176350
S       -6.41001164       3.21716724      -4.62202754
C       -5.73791125       4.64223876      -5.33859118
N       -4.50685526       5.05870353      -5.19034978
N       -4.37432931       6.21420002      -5.91494019
C       -5.52201465       6.47654651      -6.52102005
C       -5.73553624       7.63087477      -7.40460763
C       -5.00275769       8.80627556      -7.16715467
C       -5.13197962       9.92280972      -7.99941498
C       -6.00145913       9.87365819      -9.08402560
C       -6.73073942       8.71716012      -9.34691929
C       -6.58830927       7.59772875      -8.51692170
N       -6.43179145       5.50502316      -6.14380247
C       -7.83358913       5.45032809      -6.46867933
H       -5.05570887       5.16687163      -0.42842462
H       -3.86506156       4.35035355       1.19178464
H       -3.06528280       3.14175366       3.14635336
H       -1.45402055       1.56544427       4.16517803
H       -0.04591817       0.12373728       2.72778475
H       -1.88896807       1.81029568      -0.78864914
H       -5.74007574       2.22773622      -2.55230427
H       -4.36154261       3.02992452      -3.34322699
H       -4.30853615       8.85249954      -6.32799235
H       -4.54427450      10.81393896      -7.79523438
H       -7.39873911       8.66762080     -10.20309238
H       -7.13421816       6.69810466      -8.78249591
H       -8.38177974       4.86477173      -5.72811006
H       -7.93976187       4.98557245      -7.45219504
H       -8.24704268       6.46156633      -6.46831905
C       -6.13581724      11.01674303      -9.94941853
C       -6.24834216      11.97407659     -10.67418512
Br      -6.43028544      13.52200399     -11.84607138
O        4.08171824       2.10284478       7.32821082
C        3.32299126       1.91128995       6.37398071
N        3.60135474       0.87835626       5.50665880
N        2.78576816       0.52289563       4.47604314
C        3.12826462      -0.58111506       3.88973258
C        2.38096107      -1.13413666       2.74570319
C        2.51992841      -2.49605073       2.45443042
C        1.82386645      -3.05019264       1.37921374
C        1.00605379      -2.24121040       0.58877885
C        0.88179879      -0.88179879       0.88179879
C        1.55831120      -0.32056407       1.96332794
C        2.05029000       2.69745630       6.10302958
S        1.82716432       4.08609339       7.26408041
C        3.21445405       5.04348930       6.87059407
N        3.78566815       5.10601165       5.69555250
N        4.84430987       5.96990136       5.79918062
C        4.89144863       6.44727946       7.03337194
C        5.88835418       7.42247869       7.49592790
C        7.16118250       7.41956839       6.90026448
C        8.13727190       8.35086434       7.26896680
C        7.84729585       9.29988418       8.24368005
C        6.59016709       9.33048027       8.84129344
C        5.61245063       8.40280138       8.45946707
N        3.87916498       5.84528943       7.75913659
C        3.62150557       5.97610358       9.16983590
H        4.44998662       0.35758934       5.70175860
H        3.99432859      -1.17666770       4.23620345
H        3.15115989      -3.13631060       3.06591933
H        1.91730893      -4.11099947       1.15633444
H        0.47229459      -2.67792281      -0.25277720
H        1.46230554       0.73875373       2.18706280
H        1.19988669       2.02135872       6.23697973
H        2.04544819       3.07237483       5.07516678
H        7.39608385       6.68906095       6.12602044
H        9.10911828       8.32906313       6.78292393
H        6.35280228      10.08077688       9.59124212
H        4.62904583       8.48953232       8.91031340
H        3.07832787       5.10790590       9.54801945
H        3.02334994       6.87725268       9.32704202
H        4.56975540       6.03828425       9.70881880
C        8.84461869      10.26619522       8.62471828
C        9.67987657      11.07548072       8.94383779
Br      11.03041791      12.38402692       9.45982705
