165
Properties=species:S:1:pos:R:3 pbc="F F F"
C        0.00000000       0.00000000       0.00000000
O        6.41690520      -2.39104223      -5.28122131
C        5.38852168      -2.22293817      -4.62009850
N        5.16165831      -0.98746155      -4.05546052
N        4.02137991      -0.66668140      -3.38421716
C        3.92084259       0.59095351      -3.08731616
C        2.76657654       1.14073778      -2.35348660
C        2.50600944       2.51236243      -2.45203771
C        1.41934131       3.06288286      -1.77104866
C        0.60760356       2.24716365      -0.98127583
C        0.88179879       0.88179879      -0.88179879
C        1.95373702       0.31753098      -1.57093521
C        4.30160723      -3.26715028      -4.42140633
S        4.74556643      -4.88256527      -5.14215018
C        6.13302250      -5.27674392      -4.18528024
N        6.33249865      -4.90457950      -2.94728986
N        7.53974424      -5.41945376      -2.55329865
C        8.05289798      -6.12485765      -3.54950079
C        9.33311619      -6.84147385      -3.47016105
C       10.34033724      -6.33165653      -2.63319787
C       11.56382086      -6.99263066      -2.48418416
C       11.79271784      -8.17751249      -3.17588636
Br      13.43923367      -9.08305180      -2.97565057
C       10.80684297      -8.70888160      -4.00301888
C        9.57879753      -8.04881675      -4.13913554
N        7.19098870      -6.02496435      -4.62698779
C        7.39535966      -6.53727594      -5.95715418
H        5.89141909      -0.29760983      -4.20034662
H        4.69459515       1.32163259      -3.39097201
H        3.12942228       3.15639320      -3.06757434
H        1.20380244       4.12601107      -1.85482933
H       -0.23332524       2.68407443      -0.44669101
H        2.16681269      -0.74515777      -1.48895969
H        3.39965600      -2.91865316      -4.93450485
H        4.07872201      -3.38749726      -3.35701540
H       10.16796878      -5.41080789      -2.07588245
H       12.31931520      -6.57819734      -1.82186122
H       10.97420005      -9.64342092      -4.53248839
H        8.81671486      -8.51913256      -4.75224460
H        6.80782693      -5.97448290      -6.68509739
H        7.08687330      -7.58569878      -5.97196475
H        8.44894647      -6.43671479      -6.22805828
O       -7.08545252      -4.43599201       2.21436025
C       -6.16808956      -3.63450841       2.01691596
N       -5.33145773      -3.84078694       0.94258739
N       -4.34623703      -2.97350762       0.58082899
C       -3.79057390      -3.25201193      -0.55652643
C       -2.69717666      -2.44122730      -1.12239696
C       -2.45360471      -2.51829182      -2.49851304
C       -1.42706528      -1.76128342      -3.06492413
C       -0.63693125      -0.94419749      -2.25491430
C       -0.88179879      -0.88179879      -0.88179879
C       -1.91509332      -1.61979156      -0.30731832
C       -5.91443907      -2.38233940       2.84091519
S       -7.02863689      -2.25571569       4.27920123
C       -6.54742103      -3.66136553       5.16722773
N       -5.35047549      -4.18883960       5.16410607
N       -5.38144750      -5.28198456       5.98984292
C       -6.59374711      -5.39427233       6.51047833
C       -6.98113699      -6.44371531       7.46304892
C       -6.33925009      -7.69168214       7.38905365
C       -6.63538256      -8.71509758       8.29510578
C       -7.58291358      -8.49824697       9.29006883
Br      -7.98489685      -9.87144562      10.52451004
C       -8.22509968      -7.26705871       9.39117814
C       -7.91578298      -6.24164734       8.48831400
N       -7.37918006      -4.38906170       5.97522962
C       -8.79237840      -4.19093488       6.16807539
H       -5.51486826      -4.67641134       0.39712372
H       -4.12737228      -4.10809910      -1.17172837
H       -3.06546944      -3.14842847      -3.13949191
H       -1.24188355      -1.80668425      -4.13607505
H        0.16681978      -0.36260967      -2.70165032
H       -2.10128175      -1.57180897       0.76247612
H       -6.10575543      -1.51324435       2.20349209
H       -4.87378991      -2.35182897       3.17737874
H       -5.58553033      -7.86935605       6.62184304
H       -6.11484501      -9.66603298       8.21789891
H       -8.95388822      -7.08672308      10.17734378
H       -8.39910287      -5.28022202       8.62949799
H       -9.22358565      -3.63090811       5.33605234
H       -8.93683896      -3.63309489       7.09679457
H       -9.29304277      -5.16088636       6.21363917
O       -6.30187517       5.41129885      -2.40608975
C       -5.49892987       4.49524741      -2.20849525
N       -4.77268377       4.49531830      -1.03834479
N       -3.92795113       3.48986771      -0.67890317
C       -3.47920460       3.58672650       0.53318116
C       -2.54491970       2.60413921       1.11174201
C       -2.45211830       2.51297854       2.50531272
C       -1.57851325       1.59105483       3.08370474
C       -0.78886669       0.77630097       2.27087537
C       -0.88179879       0.88179879       0.88179879
C       -1.76309822       1.78651219       0.29259279
C       -5.28213066       3.31261691      -3.13888429
S       -6.23342782       3.45965599      -4.68793247
C       -5.51453409       4.88467547      -5.35765073
N       -4.27829319       5.27021373      -5.17329791
N       -4.10441878       6.43801208      -5.86884172
C       -5.23228280       6.73909135      -6.49383303
C       -5.40076267       7.91692066      -7.35587995
C       -4.64797340       9.07020145      -7.07629626
C       -4.73416612      10.20725198      -7.88604373
C       -5.58007872      10.20122440      -8.99021140
Br      -5.69819627      11.72932246     -10.09568629
C       -6.32839060       9.06731461      -9.29472496
C       -6.22900885       7.92712279      -8.48701533
N       -6.17125524       5.78011646      -6.15835956
C       -7.56631001       5.76384116      -6.51491328
H       -4.93083655       5.28658660      -0.42326728
H       -3.79477673       4.40849909       1.20392393
H       -3.06542280       3.13994583       3.14802118
H       -1.51211933       1.50618034       4.16634317
H       -0.10409687       0.06512944       2.72821389
H       -1.83090288       1.86881113      -0.78909940
H       -5.63163800       2.41054881      -2.62667912
H       -4.21859922       3.19884031      -3.36919939
H       -3.97181706       9.08257630      -6.22135002
H       -4.13184488      11.08036561      -7.64923142
H       -6.97803048       9.05141208     -10.16617503
H       -6.78836902       7.04592606      -8.78446818
H       -8.14355603       5.17463649      -5.79975110
H       -7.66062185       5.32316199      -7.51064455
H       -7.95748525       6.78380941      -6.50100470
O        4.46947320       2.22380271       7.06141379
C        3.66397869       2.02595462       6.14765795
N        3.86337091       0.94788650       5.31417287
N        2.99124564       0.58571987       4.33338989
C        3.26365018      -0.55462448       3.78083760
C        2.44689432      -1.12149356       2.69241304
C        2.51812947      -2.49874594       2.45353416
C        1.75538852      -3.06610922       1.43177509
C        0.93837442      -2.25600237       0.64166625
C        0.88179879      -0.88179879       0.88179879
C        1.62557776      -0.30627331       1.91035214
C        2.41387390       2.85355059       5.89553997
S        2.29644631       4.29628222       7.00498725
C        3.70353475       5.17749282       6.51551690
N        4.22667039       5.16816248       5.31670110
N        5.32288272       5.99005431       5.34076073
C        5.44141728       6.51463770       6.55076153
C        6.49567083       7.46480122       6.93093378
C        7.74103846       7.38399385       6.28483397
C        8.76876812       8.28740526       6.57401151
C        8.55891880       9.28654591       7.51871883
Br       9.93799025      10.51746028       7.91130247
C        7.33042813       9.39440748       8.16495961
C        6.30066644       8.49414381       7.86259369
N        4.43712968       5.98584904       7.34173151
C        4.24479992       6.18449001       8.75492799
H        4.69768472       0.40007337       5.49654453
H        4.11872933      -1.17169718       4.11677324
H        3.14816117      -3.13979038       3.06543826
H        1.79626795      -4.13807611       1.25029878
H        0.35228633      -2.70352405      -0.15837018
H        1.58211536       0.76435006       2.09284932
H        1.54318820       2.21996082       6.09228031
H        2.38081776       3.18637720       4.85379959
H        7.91323025       6.61344114       5.53325423
H        9.71753462       8.20489489       6.05033935
H        7.15555284      10.18383493       8.89154961
H        5.34150591       8.64053448       8.34885547
H        3.68334448       5.35605001       9.19114695
H        3.69082874       7.11573020       8.89804075
H        5.21670982       6.22835282       9.25193296
