190
Properties=species:S:1:pos:R:3 pbc="F F F"
C        1.79207310       1.79207310      -1.79207310
C        1.24187498       2.89857886      -2.43466836
C        2.04924263       3.70126054      -3.24402010
C        3.41033449       3.40377846      -3.41384318
C        4.27428978       4.25447485      -4.31621083
O        4.24909306       5.60417615      -3.85346087
C        4.99784032       6.51670578      -4.54971639
C        5.79880610       6.22923925      -5.67715166
C        6.53302541       7.23674276      -6.31457100
C        6.43545565       8.51085125      -5.79688399
C        5.64779312       8.80821502      -4.69019966
C        4.92212376       7.82571631      -4.05066015
O        5.68655205      10.13779976      -4.33904842
C        6.53624561      10.74530055      -5.25876064
C        6.84496111      12.04647902      -5.30183756
C        6.29911660      13.02204678      -4.35460504
C        6.99223027      13.23903229      -3.15485836
C        6.51451822      14.15356140      -2.21352387
C        5.33918075      14.85951571      -2.46049120
C        4.63869377      14.65228211      -3.64888842
C        5.11453729      13.73696494      -4.59330585
C        7.06584118       9.75122822      -6.22808206
O        7.83554910       9.91095898      -7.14970394
C        3.94739779       2.28528222      -2.75855392
C        3.14113785       1.48186928      -1.94879828
H        0.19098278       3.14482892      -2.31346306
H        1.61410394       4.56586838      -3.74155013
H        3.87532611       4.18906468      -5.33578012
H        5.30306787       3.87541036      -4.30112781
H        5.87145662       5.22430560      -6.08313669
H        7.15338126       7.02982979      -7.18008417
H        4.30966674       8.05754141      -3.18614278
H        7.51106250      12.43562177      -6.06756680
H        7.91119139      12.69550740      -2.94414315
H        7.06081166      14.31356177      -1.28684842
H        4.96740047      15.57120218      -1.72740257
H        3.72270303      15.20874616      -3.83022391
H        4.99911679       2.03069127      -2.87208641
H        3.57384020       0.61996142      -1.44790218
C        4.34988815      13.56701744      -5.80162267
C        3.70949450      13.42468640      -6.81358800
Br       2.67403212      13.19454916      -8.44985036
C       -1.79207310      -1.79207310      -1.79207310
C       -1.20483517      -2.68377772      -2.68650930
C       -2.01321970      -3.48629048      -3.49501309
C       -3.41188194      -3.40343591      -3.41263829
C       -4.28429801      -4.24890099      -4.31177645
O       -3.98535579      -5.62721275      -4.09416154
C       -4.70143077      -6.54320402      -4.81962769
C       -5.71571529      -6.23597473      -5.75350699
C       -6.39384982      -7.25058950      -6.43989985
C       -6.02596944      -8.55086303      -6.16635841
C       -5.02674967      -8.86699642      -5.25246170
C       -4.35296391      -7.87851631      -4.56702000
O       -4.81205793     -10.22041501      -5.13092729
C       -5.70877116     -10.82389883      -6.00763682
C       -5.82843201     -12.13845335      -6.22639233
C       -4.99376507     -13.13368168      -5.54832168
C       -5.43364551     -13.63704242      -4.31543299
C       -4.67523654     -14.58352108      -3.62284587
C       -3.46938231     -15.03572738      -4.15407797
C       -3.01896978     -14.54226130      -5.37863321
C       -3.77619657     -13.59424965      -6.07436186
C       -6.53404260      -9.80466691      -6.70644195
O       -7.41801310      -9.95782152      -7.52037740
C       -3.98589424      -2.49964795      -2.50569173
C       -3.17862660      -1.69666956      -1.69650925
H       -0.12422208      -2.76245881      -2.76259387
H       -1.54849032      -4.18283128      -4.19020085
H       -4.07848182      -3.96946652      -5.35222256
H       -5.33940351      -4.05675430      -4.08344823
H       -6.00128107      -5.21000880      -5.96760904
H       -7.17583283      -7.02908726      -7.15837513
H       -3.57523892      -8.12550046      -3.85261155
H       -6.55163211     -12.52016802      -6.94245094
H       -6.37224427     -13.29425528      -3.88434240
H       -5.02675874     -14.96676986      -2.66769325
H       -2.87907203     -15.77235134      -3.61458186
H       -2.07638948     -14.90242362      -5.78286001
H       -5.06721581      -2.41408984      -2.42058882
H       -3.64001699      -1.00283347      -0.99885334
C       -3.26123336     -13.12331620      -7.33397870
C       -2.82995167     -12.72890943      -8.38890780
Br      -2.13260565     -12.09118705     -10.09463893
C       -1.79207310       1.79207310       1.79207310
C       -3.09383070       1.39413511       2.08715639
C       -3.89995357       2.20418624       2.89038347
C       -3.40913912       3.41451481       3.40430220
C       -4.29401823       4.30512627       4.24583095
O       -4.74182259       3.57661762       5.38828988
C       -5.54664028       4.24136960       6.27625261
C       -5.95831127       5.58753264       6.15935309
C       -6.77922169       6.17624404       7.12887345
C       -7.16577731       5.38654806       8.19086552
C       -6.77098096       4.05912934       8.31609750
C       -5.96023163       3.46739255       7.37087604
O       -7.26938625       3.44972283       9.44429115
C       -8.03049869       4.41920493      10.09060319
C       -8.71806877       4.24941996      11.22578897
C       -8.75733862       2.97343717      11.94499264
C       -7.76289058       2.72185790      12.90137245
C       -7.74882948       1.52001814      13.61275588
C       -8.72704802       0.55699615      13.37514349
C       -9.72111280       0.79329855      12.42545294
C       -9.73762389       1.99579487      11.71138933
C       -8.00224357       5.70195834       9.34094954
O       -8.53064425       6.75916026       9.60640751
C       -2.09524038       3.79920049       3.09679306
C       -1.28802971       2.98997903       2.29379667
H       -3.48980393       0.45999915       1.69947168
H       -4.91541644       1.88668644       3.11941957
H       -5.14621322       4.62172401       3.63223368
H       -3.72649042       5.18693801       4.56617761
H       -5.65308900       6.20582794       5.31998197
H       -7.10147264       7.20924936       7.05257322
H       -5.65062298       2.43271788       7.47001007
H       -9.29745110       5.06387285      11.65292711
H       -6.98982412       3.46181928      13.09919853
H       -6.97273739       1.33633351      14.35215095
H       -8.71570964      -0.37860908      13.92890466
H      -10.47883194       0.03424937      12.24859180
H       -1.68843035       4.73221690       3.48124721
H       -0.27242288       3.30282476       2.06645615
C      -10.78916035       2.18367611      10.74569180
C      -11.66982213       2.34102665       9.93692012
Br     -13.09377776       2.59544916       8.62920472
C        1.79207310      -1.79207310       1.79207310
C        3.07930927      -1.37432696       2.12148596
C        3.88556992      -2.18431753       2.92463583
C        3.40934511      -3.41441413       3.40419689
C        4.29520609      -4.30414050       4.24562886
O        4.70519387      -3.59025550       5.41128071
C        5.50550008      -4.25675753       6.30200488
C        5.94674888      -5.59177725       6.16667087
C        6.75996521      -6.18360923       7.14076475
C        7.10908904      -5.40814553       8.22595631
C        6.68492343      -4.09169543       8.36958894
C        5.88131753      -3.49713131       7.42005138
O        7.14820157      -3.49556384       9.51963482
C        7.91584814      -4.46262351      10.16183516
C        8.57702675      -4.30230201      11.31394894
C        8.57594455      -3.04069959      12.05912428
C        7.55769164      -2.82854351      12.99988578
C        7.50496603      -1.64195904      13.73467842
C        8.46791858      -0.65496800      13.53630108
C        9.48534380      -0.85199729      12.60252320
C        9.54058526      -2.03913457      11.86508825
C        7.92868614      -5.73015392       9.38631140
O        8.47310240      -6.78178648       9.64132314
C        2.10995086      -3.81890261       3.06238046
C        1.30261514      -3.00976778       2.25942249
H        3.46383639      -0.42477393       1.76066444
H        4.88958383      -1.85134543       3.18059319
H        5.16574695      -4.59110770       3.64331626
H        3.73947249      -5.20344302       4.53669053
H        5.67099227      -6.19882009       5.30908655
H        7.10464320      -7.20820979       7.05044223
H        5.54878702      -2.47107475       7.53348917
H        9.16423417      -5.11355915      11.73645775
H        6.79605954      -3.58766029      13.16712211
H        6.71069317      -1.48889381      14.46163487
H        8.42648161       0.26875422      14.10827783
H       10.23082775      -0.07453365      12.45631170
H        1.71463303      -4.76748703       3.41977441
H        0.29832873      -3.33812510       2.00524997
C       10.61479223      -2.18628949      10.91744653
C       11.51444056      -2.30953174      10.12379660
Br      12.96909583      -2.50880403       8.84053177
C       -0.00445707       0.01189536      -1.78238275
H       -0.66409135       0.67374010      -2.43557963
H        0.65740317      -0.63156657      -2.45157240
C       -0.90989263      -0.90692880      -0.91072765
C        0.90977584       0.90977584      -0.90977584
C       -0.00465871       1.77757030       0.00794375
H       -0.66225468       2.44313916      -0.64384735
H        0.64322798       2.43503045       0.67728295
C       -1.78241447       0.00034974      -0.00472694
H       -2.45427497      -0.65498947       0.64260836
H       -2.43311707       0.67328779      -0.65473579
C       -0.91132561       0.90220522       0.91563759
C       -0.01476271      -0.02253852       1.78660255
H       -0.67934791      -0.69751639       2.42135241
H        0.63392994       0.61504881       2.47327442
C        0.01484550      -1.77751727      -0.01636693
H        0.67870853      -2.42144646      -0.68295456
H       -0.62264859      -2.45592969       0.64226336
C        1.78714474       0.01002794       0.00389507
H        2.44202412       0.67113390       0.66197326
H        2.45385902      -0.65136977      -0.64189061
C        0.91606151      -0.90478549       0.90901405
