185
Properties=species:S:1:pos:R:3 pbc="F F F"
C        0.00000000       0.00000000       0.00000000
C        0.88060968       0.88060968      -0.88060968
C        0.51568844       2.19494626      -1.13693593
C        1.32815064       3.00131461      -1.94698391
C        2.51963292       2.51748661      -2.51721713
C        2.85446525       1.18009970      -2.24065057
C        2.04791341       0.36872415      -1.42952374
N        3.33820331       3.34558025      -3.35507982
C        4.36385996       2.88217645      -4.15379095
O        4.80233538       1.74727897      -4.28438484
C        4.87333032       4.00796047      -5.00109882
H        5.96781398       4.02226869      -5.00736575
C        4.24989188       3.93444490      -6.38539574
H        3.53625019       3.10339628      -6.46636855
C        5.22286969       3.84065636      -7.54798377
C        4.43344671       4.48419883      -8.67283130
C        3.69821047       5.62687871      -7.98334158
N        3.50506626       5.18298063      -6.59851931
C        3.84537134       6.13116771      -5.51573998
C        5.07761569       7.06226496      -5.82803961
O        6.22046842       6.71707771      -6.08843315
N        4.64669769       8.37814235      -5.73024609
C        3.29732653       8.44470502      -5.42955820
C        2.53688722       9.58939371      -5.30177964
C        1.17312857       9.42969837      -5.04614409
C        0.61656126       8.14366962      -4.93868587
Br      -1.23866946       7.96028042      -4.61521234
C        1.40526709       6.99771200      -5.07392106
C        2.76429061       7.16048134      -5.30016835
C        4.29819262       5.25238084      -4.34995912
H        5.06005805       5.73349375      -3.72149933
C        3.24781341       4.72437444      -3.41542857
O        2.55908054       5.47094222      -2.73062788
H       -0.39900343       2.60931486      -0.72005153
H        0.97305380       4.01170008      -2.13023838
H        3.76268987       0.72260654      -2.62223141
H        2.34961379      -0.65783128      -1.23679249
H        5.49835489       2.80703674      -7.77818893
H        6.14266285       4.40604793      -7.36214229
H        5.07786799       4.83084957      -9.48590953
H        3.71462523       3.76556109      -9.08530915
H        4.29056622       6.54098746      -8.08104039
H        2.73276172       5.81584617      -8.46389588
H        5.25480830       9.16746139      -5.89114355
H        2.96939845      10.57818636      -5.40373297
H        0.54280279      10.30933782      -4.94050271
H        0.96845433       6.00644759      -5.00377971
C       -0.88060968      -0.88060968      -0.88060968
C       -0.68600424      -2.25457624      -0.90699015
C       -1.49786910      -3.06070433      -1.71787573
C       -2.51962546      -2.51716814      -2.51754307
C       -2.68391676      -1.12148338      -2.46981537
C       -1.87723740      -0.30951972      -1.65940419
N       -3.33711764      -3.34795552      -3.35379021
C       -4.16975845      -2.88006495      -4.35000396
O       -4.41311489      -1.73025606      -4.69062824
C       -4.72750062      -4.04414035      -5.11074865
H       -5.80168948      -3.91722948      -5.27852945
C       -3.92595589      -4.25967452      -6.38410211
H       -3.09177411      -3.54964345      -6.46459746
C       -4.71500344      -4.21528196      -7.68122442
C       -3.89149718      -5.11646942      -8.58251024
C       -3.43085142      -6.22888760      -7.64869173
N       -3.35472139      -5.61193163      -6.31991318
C       -3.97029852      -6.33553268      -5.18644783
C       -5.27680592      -7.13515861      -5.55595574
O       -6.31176628      -6.68754474      -6.02666825
N       -5.06364037      -8.46629248      -5.22515328
C       -3.78984365      -8.66153641      -4.72020970
C       -3.23198086      -9.86309826      -4.33298146
C       -1.90444282      -9.84514838      -3.89937982
C       -1.18069380      -8.64061625      -3.87760671
Br       0.62335390      -8.65301415      -3.30716305
C       -1.76510862      -7.43526034      -4.27653118
C       -3.09227371      -7.45244731      -4.68021928
C       -4.43401764      -5.24126517      -4.22524978
H       -5.33416575      -5.52023914      -3.66064624
C       -3.44665282      -4.72024543      -3.22071817
O       -2.97181337      -5.43904850      -2.34978876
H        0.09468286      -2.71705311      -0.30799271
H       -1.27696216      -4.12453501      -1.71349509
H       -3.45639871      -0.61229853      -3.03883058
H       -2.04461562       0.76465560      -1.64861499
H       -4.80080588      -3.20075776      -8.08201692
H       -5.72517464      -4.62251607      -7.56316236
H       -4.46957575      -5.49419588      -9.43085546
H       -3.02605831      -4.56681991      -8.97261725
H       -4.13539015      -7.06274950      -7.71445443
H       -2.45040935      -6.61105324      -7.95104118
H       -5.75678970      -9.18522797      -5.37139556
H       -3.79043721     -10.79152419      -4.36935637
H       -1.43166117     -10.77333746      -3.58764468
H       -1.19794285      -6.50972108      -4.27101769
C       -0.88060968       0.88060968       0.88060968
C       -2.16955636       0.47740914       1.20060513
C       -2.97593303       1.28988389       2.01063223
C       -2.51666838       2.51839933       2.51926895
C       -1.20836506       2.89707976       2.16977070
C       -0.39559875       2.08843112       1.36213143
N       -3.35288956       3.34922326       3.33675055
C       -3.08191785       4.66500177       3.65290775
O       -2.11463441       5.35618191       3.36318287
C       -4.25599349       5.24727941       4.37911670
H       -3.92543526       5.82182225       5.25019090
C       -5.12058296       6.03818295       3.41096660
H       -4.73089900       5.98996841       2.38514760
C       -5.34939288       7.49752905       3.76458788
C       -6.69730428       7.77005382       3.12311874
C       -7.47116740       6.47876788       3.35849547
N       -6.45463937       5.42229329       3.40963354
C       -6.52920998       4.44548313       4.51758593
C       -7.04075294       5.04518290       5.88198443
O       -6.54394198       5.95943888       6.52259841
N       -8.16598159       4.32683172       6.26227283
C       -8.48644171       3.36025120       5.32489685
C       -9.56448086       2.49932716       5.36425256
C       -9.73417942       1.63218200       4.28260960
C       -8.83631069       1.66082742       3.20177865
Br      -9.10668051       0.48971032       1.74043247
C       -7.75226508       2.54287541       3.18175966
C       -7.57107552       3.38332639       4.27053839
C       -5.07994232       4.03821424       4.78237603
H       -4.89050211       3.78911458       5.83543445
C       -4.50343585       2.91471347       3.96946710
O       -4.95183759       1.77644807       4.03236497
H       -2.56703841      -0.46274186       0.82606641
H       -3.98308026       0.92990487       2.20200714
H       -0.76030046       3.81951943       2.52770792
H        0.61246769       2.41800658       1.12303611
H       -4.56585377       8.15005023       3.36767656
H       -5.40896809       7.65472390       4.84716107
H       -7.19470819       8.64175940       3.55815950
H       -6.57203845       7.94583450       2.04762252
H       -8.05850682       6.57846710       4.27562015
H       -8.17714481       6.29279355       2.54256541
H       -8.68281577       4.52412824       7.10646922
H      -10.26352307       2.49499368       6.19280102
H      -10.57318962       0.94060118       4.27885252
H       -7.06931130       2.57088978       2.33848055
C        0.88060968      -0.88060968       0.88060968
C        2.15345280      -0.45720612       1.23691171
C        2.95988414      -1.26975711       2.04680790
C        2.51665075      -2.51845484       2.51923107
C        1.22455422      -2.91712097       2.13354033
C        0.41176841      -2.10858146       1.32581144
N        3.35315221      -3.34887550       3.33683566
C        3.10409397      -4.67663814       3.61909525
O        2.15836027      -5.38172750       3.29391141
C        4.27484759      -5.24949020       4.35805181
H        3.93842047      -5.84963542       5.20939251
C        5.17668294      -6.00074486       3.39230473
H        4.80787415      -5.93859988       2.35954098
C        5.42949145      -7.46222847       3.71978989
C        6.79627946      -7.69217261       3.10202477
C        7.53683988      -6.39017537       3.38141551
N        6.49681983      -5.35683636       3.43291001
C        6.52672530      -4.40288379       4.56266995
C        7.02210243      -5.02100923       5.92480861
O        6.53173858      -5.95924508       6.53499561
N        8.12320120      -4.28737486       6.34451007
C        8.44245152      -3.29415037       5.43498786
C        9.50052086      -2.41162677       5.51591295
C        9.67428929      -1.51786341       4.45681833
C        8.80035908      -1.54212196       3.35643572
Br       9.07621798      -0.33417128       1.92643404
C        7.73633362      -2.44630579       3.29426074
C        7.55035026      -3.31378526       4.36080477
C        5.06369302      -4.03224953       4.80459003
H        4.84662873      -3.81008000       5.85834240
C        4.48035305      -2.90388127       4.00338211
O        4.90257007      -1.75799730       4.10008326
H        2.53833371       0.49904669       0.89107593
H        3.95471887      -0.89274251       2.26753088
H        0.78908232      -3.85638313       2.46206237
H       -0.58363208      -2.45419269       1.05801439
H        4.66885228      -8.12246169       3.29226659
H        5.46949989      -7.64152859       4.79982459
H        7.30310947      -8.56235605       3.52916157
H        6.69767021      -7.84724057       2.02058469
H        8.10663170      -6.49723901       4.30872337
H        8.25575849      -6.17165798       2.58508731
H        8.62617891      -4.49190617       7.19532815
H       10.18158885      -2.41042030       6.35930862
H       10.49801973      -0.80873756       4.48588603
H        7.07217160      -2.47052237       2.43598765
