73
Properties=species:S:1:pos:R:3 pbc="F F F"
C        0.00000000       0.00000000       0.00000000
C        0.86303298       0.86303298      -0.86303298
C        0.74269294       0.93493282      -2.19300121
C        1.57171086       1.76138233      -3.00026226
C        2.61760342       2.62134355      -2.67494877
C        3.10470391       3.20554345      -3.87309329
C        4.11462111       4.12471975      -4.20945352
C        4.28447579       4.45579104      -5.56129905
Br       5.63617642       5.69043651      -6.04352285
C        3.48065459       3.89666643      -6.55810647
C        2.47284600       2.98107807      -6.23565365
C        2.32627058       2.67048428      -4.88556127
O        1.41277546       1.81014556      -4.36977987
H        1.59275724       1.42044147      -0.28996051
H       -0.01321060       0.34758442      -2.70765115
H        2.99343661       2.81064838      -1.67968445
H        4.74249196       4.56267026      -3.43977073
H        3.63046614       4.16835564      -7.60057350
H        1.83663282       2.53378442      -6.98959251
C       -0.86303298      -0.86303298      -0.86303298
C       -1.12809433      -2.14638148      -0.59615115
C       -1.95164096      -2.95430436      -1.42741014
C       -2.62904439      -2.67356482      -2.61128652
C       -3.30789912      -3.84851396      -3.02692757
C       -4.13739061      -4.20669922      -4.10470454
C       -4.62581278      -5.52000953      -4.15574357
Br      -5.74468521      -6.03039719      -5.59505339
C       -4.30640904      -6.45821983      -3.17079861
C       -3.48207831      -6.11357279      -2.09392663
C       -3.01126581      -4.80270144      -2.06834887
O       -2.20389001      -4.27408342      -1.11472746
H       -1.24692043      -0.33179435      -1.72444445
H       -0.70996420      -2.62017297       0.28811221
H       -2.63581591      -1.72294371      -3.12500981
H       -4.38928233      -3.48249641      -4.87315420
H       -4.69692972      -7.47156970      -3.23089585
H       -3.21985798      -6.82227193      -1.31787983
C       -0.86303298       0.86303298       0.86303298
C       -1.76838608       1.72121326       0.38102762
C       -2.58224370       2.53544760       1.21566416
C       -2.65538525       2.65757026       2.60094022
C       -3.64740089       3.62346903       2.91247074
C       -4.17991310       4.17942117       4.08946011
C       -5.18896415       5.14526165       3.96734008
Br      -5.92445273       5.91092444       5.53475862
C       -5.66291753       5.55433125       2.71817870
C       -5.14079753       5.00847632       1.54030388
C       -4.13983898       4.05137443       1.69110271
O       -3.50793209       3.40607094       0.67869787
H       -0.67165461       0.71363997       1.91786464
H       -1.91115074       1.82250291      -0.69162868
H       -2.05810490       2.10990886       3.31575568
H       -3.81604248       3.86590958       5.06298088
H       -6.44659112       6.30524084       2.64756331
H       -5.49107705       5.30865825       0.56027445
C        0.86303298      -0.86303298       0.86303298
C        1.76627059      -0.38095661       1.72339976
C        2.57983045      -1.21558316       2.53794185
C        2.65933408      -2.60107276       2.65348888
C        3.64733625      -2.91246857       3.62353584
C        4.18235600      -4.08954210       4.17689627
C        5.18493877      -3.96720496       5.14942215
Br       5.92358086      -5.53472936       5.91182558
C        5.64997693      -2.71774435       5.56770621
C        5.12542056      -1.53978775       5.02436943
C        4.13090786      -1.69080293       4.06060534
O        3.49796232      -0.67836323       3.41637535
H        0.67316716      -1.91791541       0.71207666
H        1.90703370       0.69176687       1.82675814
H        2.06905421      -3.31612320       2.09859203
H        3.82540455      -5.06329512       3.85623327
H        6.42863536      -2.64696062       6.32379929
H        5.46881230      -0.55952712       5.33167032
