193
Properties=species:S:1:pos:R:3 pbc="F F F"
C        0.00000000       0.00000000       0.00000000
N        2.90608433       6.96110494      -0.76182503
C        3.76087338       7.03495347      -1.54527963
C        4.83191294       7.25950263      -2.45122285
C        5.16497351       6.42908559      -3.45894063
C        4.52933199       5.18407546      -3.71734808
C        4.60232078       4.39842253      -4.86075251
C        3.83869451       3.22763667      -4.63370793
C        3.32620480       3.34195548      -3.36147954
O        3.73578843       4.51975426      -2.81589414
C        2.49398501       2.50181507      -2.51053678
C        2.43282905       1.11591047      -2.71732609
C        1.63211617       0.30684081      -1.90447445
C        0.88148380       0.88148380      -0.88148380
C        0.92961014       2.25461262      -0.65863057
C        1.73596009       3.05903851      -1.46874379
C        5.65692778       8.51353384      -2.32611661
O        6.51022043       8.75984934      -3.17488956
N        5.35263429       9.30614357      -1.24012755
C        6.01733848      10.47833408      -1.00274726
N        7.06420388      10.97205839      -1.60522334
C        7.35723786      12.20963790      -1.07247834
C        6.50023658      12.65839552      -0.08349735
C        6.44116136      13.96065478       0.65868799
C        7.40953000      15.01686126       0.16661034
C        8.43742785      15.48098808       1.00026485
C        9.34041581      16.44411757       0.54359907
C        9.22429800      16.94372955      -0.75170215
C        8.20483143      16.50099225      -1.59051106
C        7.29294690      15.54996561      -1.12837025
S        5.35134789      11.41842311       0.25513036
H        5.97779740       6.69412223      -4.13317483
H        5.15202669       4.64661791      -5.75917545
H        3.68080017       2.40654397      -5.31821643
H        3.01913187       0.64781397      -3.50461140
H        1.60426137      -0.76561040      -2.07751639
H        0.34815742       2.71280253       0.13696080
H        1.76152497       4.13180601      -1.28237034
H        4.59922684       9.10104824      -0.59822773
H        8.20102865      12.75838347      -1.47501912
H        6.61893120      13.76671963       1.72450119
H        5.42837972      14.37939094       0.58807371
H        8.54544325      15.09589895       2.01220428
H       10.13067663      16.79338270       1.20303880
H        8.11289465      16.88433214      -2.60326941
H        6.50102146      15.21039589      -1.79428053
C       10.16608280      17.92386583      -1.22706966
C       10.95482757      18.74472996      -1.62518994
Br      12.23016115      20.07199784      -2.26891678
N       -2.55685544      -1.00579054      -7.06636831
C       -3.05034643      -2.04164198      -7.24911807
C       -3.65208880      -3.27542844      -7.61512117
C       -4.13793316      -4.17641400      -6.73865257
C       -4.06078448      -4.04466761      -5.32530344
C       -4.75316000      -4.75537873      -4.35295709
C       -4.30890431      -4.30522716      -3.08590765
C       -3.36343377      -3.33547200      -3.33073405
O       -3.22108814      -3.17545525      -4.67489345
C       -2.51162155      -2.49821619      -2.49649912
C       -2.18176841      -2.89271290      -1.19158431
C       -1.36712303      -2.08959428      -0.38671413
C       -0.88148380      -0.88148380      -0.88148380
C       -1.19571914      -0.47273124      -2.17440296
C       -2.00466464      -1.28103125      -2.97804651
C       -3.80013094      -3.62324413      -9.07320316
O       -4.41767237      -4.63670898      -9.39057799
N       -3.22291483      -2.72791428      -9.94807630
C       -3.28311547      -2.91283017     -11.30247419
N       -3.72553760      -3.93756031     -11.97838772
C       -3.64846675      -3.66336440     -13.32752295
C       -3.17323012      -2.40768896     -13.66121038
C       -3.02943529      -1.72468732     -14.98900554
C       -3.60986437      -2.48777312     -16.16214342
C       -2.77519107      -2.95527997     -17.18768004
C       -3.30618452      -3.67181495     -18.26293484
C       -4.67414652      -3.93036259     -18.31522058
C       -5.51929897      -3.46657955     -17.31045622
C       -4.99045457      -2.73685325     -16.24397494
S       -2.70657682      -1.59246290     -12.21560092
H       -4.61896471      -5.08243284      -7.10369691
H       -5.49633034      -5.51865062      -4.54283909
H       -4.64324747      -4.64586669      -2.11644641
H       -2.54334050      -3.83699136      -0.79122537
H       -1.11820449      -2.41706767       0.61910481
H       -0.82172076       0.46778430      -2.57006269
H       -2.24251746      -0.94635696      -3.98682690
H       -2.77753479      -1.87083161      -9.65013640
H       -3.98913660      -4.41737713     -14.02791751
H       -1.96481776      -1.52678536     -15.16954651
H       -3.52193915      -0.74373409     -14.95402372
H       -1.70386768      -2.76720708     -17.15806316
H       -2.64520535      -4.02618743     -19.04962775
H       -6.58639053      -3.66965989     -17.34444577
H       -5.66130546      -2.38089221     -15.46350020
C       -5.21783462      -4.68383387     -19.41534980
C       -5.67317340      -5.31486606     -20.33670802
Br      -6.40941769      -6.33519174     -21.82646634
N       -7.10483136       2.39222011       1.13196284
C       -7.27318431       2.90912804       2.15879413
C       -7.62231542       3.53475049       3.38557252
C       -6.73566846       4.06884956       4.24848171
C       -5.32479191       4.02622926       4.07973435
C       -4.35319672       4.76401636       4.74428274
C       -3.08692202       4.34179080       4.27132629
C       -3.33151275       3.36354064       3.33458643
O       -4.67503643       3.18060898       3.21579143
C       -2.49687203       2.51165783       2.49780700
C       -1.17314865       2.22818571       2.86473125
C       -0.36796025       1.41359620       2.06187499
C       -0.88148380       0.88148380       0.88148380
C       -2.19317208       1.14927817       0.50040309
C       -2.99683700       1.95834879       1.30855661
C       -9.07402851       3.65299441       3.76955531
O       -9.38094853       4.28960806       4.77440274
N       -9.95639566       3.02779178       2.91471798
C      -11.30646109       3.05654079       3.13541796
N      -11.96649303       3.50880745       4.16618514
C      -13.31987816       3.38780226       3.93167368
C      -13.67401139       2.86911102       2.69900704
C      -15.01524961       2.67067459       2.05720396
C      -16.18301708       3.24017984       2.83658400
C      -17.17203740       2.39142899       3.35468470
C      -18.24188023       2.91288537       4.08616872
C      -18.32507523       4.28558078       4.30907369
C      -17.35700168       5.14434587       3.79498719
C      -16.29634119       4.62443459       3.05050698
S      -12.23853670       2.41920050       1.85690344
H       -7.08933623       4.56479108       5.15096715
H       -4.54295054       5.52266804       5.49220147
H       -2.11826660       4.71147661       4.57581737
H       -0.75764227       2.62646335       3.78745160
H        0.65283957       1.20107248       2.36793445
H       -2.60353678       0.73881461      -0.41835225
H       -4.02048353       2.15953558       0.99568221
H       -9.66945046       2.56702165       2.06203069
H      -14.00885425       3.73022769       4.69534930
H      -15.17148051       1.59649772       1.89317140
H      -15.02040672       3.13655973       1.06273050
H      -17.11781669       1.31649244       3.19482879
H      -19.00010229       2.24100482       4.47991341
H      -17.41506967       6.21535184       3.97007469
H      -15.54464915       5.30596770       2.65508102
C      -19.41912948       4.82007530       5.07781350
C      -20.33539992       5.26771446       5.72163310
Br     -21.81693172       5.99150912       6.76263493
N        0.14101912      -4.13409271       6.35390247
C        1.06245285      -4.83626759       6.44238603
C        2.12129539      -5.75708628       6.66425675
C        3.30487637      -5.72751117       6.02061219
C        3.63482556      -4.80828623       4.98764373
C        4.88623971      -4.51448558       4.46077053
C        4.70930920      -3.57190809       3.41882182
C        3.35740966      -3.32342216       3.34880800
O        2.71509368      -4.06073131       4.29561185
C        2.50855098      -2.49277216       2.50501372
C        2.93460688      -2.10535891       1.22609982
C        2.12366442      -1.30498325       0.41478377
C        0.88148380      -0.88148380       0.88148380
C        0.43943543      -1.25644662       2.14697129
C        1.24973877      -2.06173828       2.95226533
C        1.95801881      -6.83729818       7.70126124
O        2.91209751      -7.56315268       7.96970915
N        0.71176916      -6.90011684       8.28701940
C        0.42079970      -7.82827414       9.24934599
N        1.13598766      -8.83526332       9.67023464
C        0.47104856      -9.47086025      10.69744528
C       -0.73908146      -8.91255433      11.06865658
C       -1.69107905      -9.25937523      12.17483198
C       -1.19609934     -10.32879702      13.12708324
C       -1.86129712     -11.56003836      13.21940984
C       -1.39807194     -12.55303790      14.08596836
C       -0.26310576     -12.32251972      14.86031574
C        0.40512658     -11.10301461      14.78819355
C       -0.06734106     -10.10496189      13.93366193
S       -1.09275199      -7.60408024      10.00331240
H        4.07926363      -6.44862260       6.27720823
H        5.82362304      -4.94009796       4.79409905
H        5.47664767      -3.12800462       2.80090829
H        3.89687889      -2.43411299       0.84056536
H        2.46999837      -1.02166537      -0.57549639
H       -0.52808625      -0.93170412       2.52038127
H        0.89004187      -2.34522928       3.94043016
H       -0.02934453      -6.24322358       8.08462375
H        0.94147731     -10.32875259      11.16420134
H       -2.64520833      -9.57402380      11.73233417
H       -1.90962475      -8.36134103      12.76798067
H       -2.74522752     -11.75787393      12.61649151
H       -1.92598605     -13.50124152      14.14576506
H        1.29354426     -10.92013473      15.38681721
H        0.46476650      -9.15608432      13.88484706
C        0.22335972     -13.35319371      15.74046485
C        0.63077456     -14.21638317      16.47758974
Br       1.28952990     -15.61208753      17.66945834
