185
Properties=species:S:1:pos:R:3 pbc="F F F"
C        0.00000000       0.00000000       0.00000000
N        2.90608433       6.96110494      -0.76182503
C        3.76087338       7.03495347      -1.54527963
C        4.83191294       7.25950263      -2.45122285
C        5.16497351       6.42908559      -3.45894063
C        4.52933199       5.18407546      -3.71734808
C        4.60232078       4.39842253      -4.86075251
C        3.83869451       3.22763667      -4.63370793
C        3.32620480       3.34195548      -3.36147954
O        3.73578843       4.51975426      -2.81589414
C        2.49398501       2.50181507      -2.51053678
C        2.43282905       1.11591047      -2.71732609
C        1.63211617       0.30684081      -1.90447445
C        0.88148380       0.88148380      -0.88148380
C        0.92961014       2.25461262      -0.65863057
C        1.73596009       3.05903851      -1.46874379
C        5.65692778       8.51353384      -2.32611661
O        6.51022043       8.75984934      -3.17488956
N        5.35263429       9.30614357      -1.24012755
C        6.01733848      10.47833408      -1.00274726
N        7.06420388      10.97205839      -1.60522334
C        7.35723786      12.20963790      -1.07247834
C        6.50023658      12.65839552      -0.08349735
C        6.44116136      13.96065478       0.65868799
C        7.40953000      15.01686126       0.16661034
C        8.43742785      15.48098808       1.00026485
C        9.34041581      16.44411757       0.54359907
C        9.22429800      16.94372955      -0.75170215
Br      10.46049207      18.23026407      -1.37567325
C        8.20483143      16.50099225      -1.59051106
C        7.29294690      15.54996561      -1.12837025
S        5.35134789      11.41842311       0.25513036
H        5.97779740       6.69412223      -4.13317483
H        5.15202669       4.64661791      -5.75917545
H        3.68080017       2.40654397      -5.31821643
H        3.01913187       0.64781397      -3.50461140
H        1.60426137      -0.76561040      -2.07751639
H        0.34815742       2.71280253       0.13696080
H        1.76152497       4.13180601      -1.28237034
H        4.59922684       9.10104824      -0.59822773
H        8.20102865      12.75838347      -1.47501912
H        6.61893120      13.76671963       1.72450119
H        5.42837972      14.37939094       0.58807371
H        8.54544325      15.09589895       2.01220428
H       10.13067663      16.79338270       1.20303880
H        8.11289465      16.88433214      -2.60326941
H        6.50102146      15.21039589      -1.79428053
N       -0.59600249      -3.17303045      -6.85998136
C       -1.41227966      -3.99668277      -6.93214404
C       -2.35396134      -5.03764651      -7.15103057
C       -3.40914849      -5.29162669      -6.35222455
C       -3.69142707      -4.59193219      -5.14739626
C       -4.86881455      -4.58259300      -4.41008826
C       -4.65783126      -3.77871356      -3.26349429
C       -3.36075554      -3.32541635      -3.34346793
O       -2.78476136      -3.80855233      -4.47812315
C       -2.51017867      -2.49363425      -2.50252394
C       -2.77193381      -2.36337706      -1.13075475
C       -1.95945424      -1.56280720      -0.32117000
C       -0.88148380      -0.88148380      -0.88148380
C       -0.60365968      -0.99884948      -2.24034418
C       -1.41384655      -1.80495782      -3.04493802
C       -2.21263666      -5.92118120      -8.36276037
O       -3.08682727      -6.74814139      -8.60999068
N       -1.08216132      -5.69754000      -9.11920409
C       -0.82518964      -6.42218185     -10.25104834
N       -1.45163576      -7.46348103     -10.72636884
C       -0.88086329      -7.83235550     -11.92613531
C        0.16253774      -7.03793389     -12.36673330
C        0.96045968      -7.06693820     -13.63664964
C        0.47118630      -8.05908345     -14.67188377
C        1.27782882      -9.14027612     -15.05570378
C        0.82286280     -10.06457595     -15.99922117
C       -0.44407619      -9.91627720     -16.55937630
Br      -1.06706184     -11.18029986     -17.81906770
C       -1.25533666      -8.84421920     -16.19677888
C       -0.79401027      -7.91179713     -15.26547537
S        0.49883730      -5.85114605     -11.16233189
H       -4.10656822      -6.08631686      -6.61220938
H       -5.77922034      -5.10452646      -4.67407325
H       -5.36855897      -3.55657618      -2.48042543
H       -3.60299024      -2.89519468      -0.67337230
H       -2.17585710      -1.48089912       0.74058886
H        0.23506097      -0.47178791      -2.68727221
H       -1.18402332      -1.88515207      -4.10652594
H       -0.41710363      -4.96342292      -8.91797625
H       -1.29656389      -8.68172607     -12.45614129
H        2.00843362      -7.28052558     -13.38905768
H        0.95175716      -6.07135296     -14.10010115
H        2.26707350      -9.27362920     -14.62258221
H        1.46118491     -10.89625520     -16.28595024
H       -2.24617453      -8.72680455     -16.62751712
H       -1.43831245      -7.07860907     -14.98877636
N       -7.11499810       2.34238518       1.17163102
C       -7.27912839       2.86647887       2.19549922
C       -7.62327194       3.49945311       3.41991337
C       -6.73398578       4.04814687       4.27086708
C       -5.32425544       4.01586318       4.09063691
C       -4.35338981       4.76727225       4.74083375
C       -3.08759669       4.35165052       4.26079190
C       -3.33175614       3.36356422       3.33431946
O       -4.67463886       3.16845769       3.22834028
C       -2.49698842       2.51166465       2.49768379
C       -1.16792081       2.24231908       2.85582573
C       -0.36263402       1.42774981       2.05304761
C       -0.88148380       0.88148380       0.88148380
C       -2.19850339       1.13513406       0.50921588
C       -3.00217633       1.94424200       1.31732406
C       -9.07267847       3.60882272       3.81507704
O       -9.37655461       4.25127502       4.81712970
N       -9.95685272       2.96913522       2.97291747
C      -11.30522700       2.98849141       3.20470142
N      -11.96042621       3.44388631       4.23717310
C      -13.31465356       3.30964793       4.01505261
C      -13.67467228       2.77769063       2.78976655
C      -15.01949549       2.56270684       2.16092582
C      -16.18547311       3.12899197       2.94531584
C      -17.16298065       2.27641455       3.47875588
C      -18.23103584       2.79506751       4.21483097
C      -18.32389741       4.16884610       4.42698619
Br     -19.75734930       4.86689280       5.44218729
C      -17.36738585       5.03129631       3.89765258
C      -16.30863358       4.51400272       3.14864646
S      -12.24253303       2.33269473       1.93941288
H       -7.08427748       4.54868782       5.17212916
H       -4.54327283       5.53057202       5.48397520
H       -2.11957788       4.73193554       4.55404715
H       -0.74810338       2.65177921       3.77167463
H        0.66242843       1.22631350       2.35228229
H       -2.61304413       0.71356498      -0.40260997
H       -4.03004684       2.13426123       1.01139326
H       -9.67315957       2.50362573       2.12171751
H      -14.00009690       3.65272498       4.78160935
H      -15.16805992       1.48592623       2.00716348
H      -15.03684785       3.02016411       1.16268499
H      -17.10106702       1.20066221       3.32740870
H      -18.98028249       2.12022585       4.62051218
H      -17.43298662       6.10321423       4.06429534
H      -15.56601157       5.19842775       2.74125855
N        0.06467391      -4.36678536       6.19755504
C        1.00846990      -5.03731487       6.29532171
C        2.09293990      -5.92621860       6.52347992
C        3.29748629      -5.82826301       5.92725042
C        3.62986470      -4.85852215       4.94236867
C        4.88769658      -4.49868991       4.47510933
C        4.71335063      -3.52401234       3.46267614
C        3.35642351      -3.32314039       3.35007592
O        2.70832586      -4.11945867       4.24365231
C        2.50807630      -2.49265885       2.50560171
C        2.96591496      -2.04098819       1.25916246
C        2.15539171      -1.24058319       0.44745654
C        0.88148380      -0.88148380       0.88148380
C        0.40769376      -1.32079745       2.11436213
C        1.21798990      -2.12590405       2.91984845
C        1.93302476      -7.05071485       7.51283862
O        2.90367888      -7.75058870       7.79069175
N        0.66931273      -7.18196132       8.04763136
C        0.37881136      -8.15647149       8.96313698
N        1.11606765      -9.15175551       9.37366246
C        0.43850603      -9.85042663      10.35042143
C       -0.80504076      -9.35186450      10.69530572
C       -1.78324989      -9.77580470      11.75057335
C       -1.28312579     -10.86195456      12.68095215
C       -1.90355319     -12.11956680      12.70213747
C       -1.43490451     -13.12728845      13.54855038
C       -0.33900244     -12.88487320      14.37385894
Br       0.30784973     -14.25655542      15.50202424
C        0.28415901     -11.63964356      14.37253217
C       -0.19435722     -10.62767880      13.53796118
S       -1.16904931      -8.01744197       9.66624798
H        4.08895996      -6.52958472       6.18654978
H        5.82776299      -4.90185384       4.82820322
H        5.48539876      -3.02868223       2.89147958
H        3.95367787      -2.31893218       0.89894718
H        2.52695137      -0.90687915      -0.51766316
H       -0.58470951      -1.04658813       2.46212052
H        0.83317105      -2.46019352       3.88233675
H       -0.08847331      -6.54561672       7.84135939
H        0.92393573     -10.70762807      10.80286745
H       -2.70760459     -10.10828130      11.26047292
H       -2.05785347      -8.90987612      12.36767430
H       -2.75636333     -12.32664802      12.05885323
H       -1.92790016     -14.09594461      13.55297608
H        1.14218252     -11.44716625      15.01114743
H        0.30239433      -9.65861604      13.54468751
