162
Properties=species:S:1:pos:R:3 pbc="F F F"
C        1.79283427       1.79283427      -1.79283427
C        1.23256041       2.45541399      -2.87979154
C        2.03626225       3.28025258      -3.66006200
C        3.39566964       3.41694104      -3.36091588
C        3.98795776       2.70903361      -2.30275994
N        5.34954881       2.92924219      -2.02716478
C        6.09475993       1.83766622      -1.41833184
N        7.45962824       2.28430002      -1.23836695
C        7.92927665       2.90918868      -0.10505987
S        7.10777358       3.29249727       1.29541812
S        9.64290562       3.26517581      -0.29595724
C        9.72357168       2.52560227      -1.85192650
C       10.87332827       2.39853198      -2.52886241
C       11.02394625       1.74709849      -3.83043294
C       10.98899628       2.50813923      -5.00406311
C       11.13830999       1.88965389      -6.24723755
C       11.32428596       0.50927339      -6.32294325
C       11.35950974      -0.24726636      -5.15269009
Br      11.61316755      -2.11842917      -5.25462283
C       11.21195146       0.36268775      -3.90691982
C        8.36575960       2.06324646      -2.25840356
O        8.09565098       1.57226067      -3.34480766
C        3.15197063       1.92983193      -1.49318472
H        0.17697113       2.35021647      -3.11402424
H        1.60769587       3.82409525      -4.49794473
H        3.99644797       4.08356870      -3.97599848
H        5.82788737       3.24944617      -2.86751619
H        6.07655373       0.95701515      -2.07181716
H        5.68115438       1.54966891      -0.44853462
H       11.80371104       2.77988912      -2.11272149
H       10.83979538       3.58465016      -4.96093980
H       11.10512291       2.48377124      -7.15697600
H       11.43668747       0.03493182      -7.29426082
H       11.23958120      -0.23669704      -3.00097477
H        3.53656719       1.42751181      -0.61205955
C       -1.79283427      -1.79283427      -1.79283427
C       -1.28104291      -2.97927164      -2.30745138
C       -2.10024792      -3.79135265      -3.08497626
C       -3.41442848      -3.39940671      -3.35969136
C       -3.92663904      -2.17694152      -2.89617074
N       -5.27114755      -1.86629510      -3.16851314
C       -5.62703228      -0.45861269      -3.26511301
N       -7.04250163      -0.38247485      -3.55731872
C       -8.03029973      -0.31234670      -2.60087877
S       -7.87870478      -0.28643715      -0.93971080
S       -9.60362464      -0.21535753      -3.38505651
C       -8.92274367      -0.20872668      -4.96963012
C       -9.66950945      -0.05877541      -6.07243779
C       -9.15786823      -0.00147213      -7.44213732
C       -9.11595170      -1.16080779      -8.22443914
C       -8.63353185      -1.10774327      -9.53392631
C       -8.19240508       0.10328813     -10.06738564
C       -8.23549509       1.25740076      -9.28683914
Br      -7.63906925       2.89973431     -10.01002625
C       -8.71657684       1.21327960      -7.97826179
C       -7.44275142      -0.36450518      -4.88015303
O       -6.69654094      -0.47400726      -5.84217111
C       -3.10705331      -1.40101996      -2.06691401
H       -0.26041929      -3.28524951      -2.09554304
H       -1.72250385      -4.73351649      -3.47371552
H       -4.03883828      -4.06297816      -3.95419872
H       -5.58074463      -2.36040992      -4.00369518
H       -5.05660037       0.02100072      -4.06978639
H       -5.42336369       0.08041992      -2.33641414
H      -10.74962107       0.05014048      -5.99684106
H       -9.45188270      -2.11311500      -7.82038763
H       -8.59754792      -2.01174292     -10.13657931
H       -7.81554447       0.13587579     -11.08621143
H       -8.74448325       2.11865697      -7.37803267
H       -3.47655010      -0.48891191      -1.61067654
C       -1.79283427       1.79283427       1.79283427
C       -2.85142978       2.49268889       1.22364726
C       -3.66794202       3.26989613       2.03873868
C       -3.40529574       3.35861409       3.40961673
C       -2.30583916       2.70498669       3.98892545
N       -2.12727368       2.79767244       5.38100966
C       -0.76829138       2.69199242       5.89047418
N       -0.82754912       2.82422401       7.33052208
C       -0.97304235       1.76842864       8.20205422
S       -1.10290626       0.14046060       7.86148588
S       -0.97882597       2.36770452       9.85750819
C       -0.72781493       4.00298413       9.37030140
C       -0.55178225       4.99694163      10.25199878
C       -0.29283209       6.39644774       9.91219785
C       -1.35150610       7.30857148       9.84112105
C       -1.10642205       8.64605398       9.52272540
C        0.19671054       9.07783403       9.27537910
C        1.25027193       8.16793025       9.34727516
Br       3.01727042       8.75304058       9.01359104
C        1.01427202       6.83044388       9.66538717
C       -0.71857438       4.08699192       7.88184332
O       -0.63953630       5.12770739       7.24547562
C       -1.53038870       1.88093600       3.16366258
H       -3.05682076       2.42539707       0.15899401
H       -4.51400239       3.80299121       1.61274225
H       -4.07150203       3.95805162       4.02646150
H       -2.56434703       3.64789115       5.73261155
H       -0.14425651       3.49034298       5.47078656
H       -0.30893953       1.73313402       5.63728436
H       -0.57792359       4.79702214      11.32137592
H       -2.37335283       6.98542826      10.02660424
H       -1.93231192       9.35037068       9.46318755
H        0.37898014      10.11961311       9.02524714
H        1.84271635       6.12920252       9.71737277
H       -0.72008803       1.28553362       3.57051690
C        1.79283427      -1.79283427       1.79283427
C        3.02073633      -2.23498248       1.31204712
C        3.83102180      -3.01287891       2.13267613
C        3.39705891      -3.36041491       3.41605273
C        2.13539370      -2.97078710       3.89357050
N        1.78121939      -3.31389006       5.21084634
C        0.36547452      -3.48428917       5.50099429
N        0.24329617      -3.84054734       6.89845170
C        0.09072304      -2.93161085       7.92119131
S       -0.00091137      -1.26794515       7.83781895
S       -0.03748693      -3.78666795       9.45485765
C        0.05295766      -5.33911112       8.70903168
C       -0.07992486      -6.47856154       9.40208597
C       -0.05642126      -7.82596900       8.83192993
C        1.13650465      -8.55683207       8.80786192
C        1.16041180      -9.84522761       8.26956202
C       -0.00694252     -10.40893877       7.75450634
C       -1.19462747      -9.67966160       7.77989935
Br      -2.77781499     -10.44395339       7.08322280
C       -1.22736671      -8.39248804       8.31643769
C        0.26611169      -5.17910410       7.24219384
O        0.44818419      -6.10245350       6.46208162
C        1.35897361      -2.13973225       3.07628141
H        3.35940525      -1.96645126       0.31535533
H        4.80405640      -3.34534995       1.78032950
H        4.05926216      -3.95334794       4.04340505
H        2.29780492      -4.14044976       5.50659505
H       -0.05463965      -4.28270090       4.87732480
H       -0.20440974      -2.57084543       5.31292223
H       -0.23683586      -6.45449439      10.47866312
H        2.05559130      -8.12848854       9.20130549
H        2.09042187     -10.40764103       8.24780726
H        0.02040396     -11.41092685       7.33454930
H       -2.15831096      -7.83220093       8.32996897
H        0.41335477      -1.73827741       3.42450637
C       -0.00445707       0.01189536      -1.78238275
H       -0.66409135       0.67374010      -2.43557963
H        0.65740317      -0.63156657      -2.45157240
C       -0.90989263      -0.90692880      -0.91072765
C        0.90977584       0.90977584      -0.90977584
C       -0.00465871       1.77757030       0.00794375
H       -0.66225468       2.44313916      -0.64384735
H        0.64322798       2.43503045       0.67728295
C       -1.78241447       0.00034974      -0.00472694
H       -2.45427497      -0.65498947       0.64260836
H       -2.43311707       0.67328779      -0.65473579
C       -0.91132561       0.90220522       0.91563759
C       -0.01476271      -0.02253852       1.78660255
H       -0.67934791      -0.69751639       2.42135241
H        0.63392994       0.61504881       2.47327442
C        0.01484550      -1.77751727      -0.01636693
H        0.67870853      -2.42144646      -0.68295456
H       -0.62264859      -2.45592969       0.64226336
C        1.78714474       0.01002794       0.00389507
H        2.44202412       0.67113390       0.66197326
H        2.45385902      -0.65136977      -0.64189061
C        0.91606151      -0.90478549       0.90901405
