141
Properties=species:S:1:pos:R:3 pbc="F F F"
C        0.00000000       0.00000000       0.00000000
C        0.88293024       0.88293024      -0.88293024
C        0.32265638       1.54550996      -1.96988752
C        1.12635823       2.37034856      -2.75015797
C        2.48576561       2.50703702      -2.45101185
C        3.07805373       1.79912958      -1.39285591
N        4.43964479       2.01933816      -1.11726076
C        5.18485590       0.92776219      -0.50842782
N        6.54972422       1.37439599      -0.32846293
C        7.01937263       1.99928466       0.80484416
S        6.19786955       2.38259325       2.20532214
S        8.73300160       2.35527179       0.61394679
C        8.81366766       1.61569825      -0.94202248
C        9.96342424       1.48862795      -1.61895839
C       10.11404222       0.83719447      -2.92052892
C       10.07909226       1.59823521      -4.09415909
C       10.22840596       0.97974986      -5.33733353
C       10.41438193      -0.40063064      -5.41303922
C       10.44960571      -1.15717038      -4.24278607
Br      10.70326352      -3.02833320      -4.34471880
C       10.30204744      -0.54721628      -2.99701580
C        7.45585557       1.15334244      -1.34849954
O        7.18574696       0.66235665      -2.43490363
C        2.24206660       1.01992790      -0.58328070
H       -0.73293289       1.44031244      -2.20412021
H        0.69779184       2.91419123      -3.58804071
H        3.08654394       3.17366468      -3.06609446
H        4.91798335       2.33954214      -1.95761217
H        5.16664971       0.04711112      -1.16191314
H        4.77125036       0.63976489       0.46136940
H       10.89380701       1.86998510      -1.20281747
H        9.92989136       2.67474613      -4.05103577
H       10.19521889       1.57386722      -6.24707198
H       10.52678344      -0.87497220      -6.38435680
H       10.32967718      -1.14660106      -2.09107075
H        2.62666317       0.51760779       0.29784448
C       -0.88293024      -0.88293024      -0.88293024
C       -0.66238071      -0.92001668      -2.25565647
C       -1.45045315      -1.74858764      -3.04782397
C       -2.46540808      -2.51392397      -2.46448243
C       -2.73831291      -2.44277772      -1.08894860
N       -3.74151180      -3.27474378      -0.55998813
C       -4.44048455      -2.80880407       0.62824271
N       -5.42269039      -3.81140438       0.98151164
C       -5.18479989      -4.86464802       1.83563479
S       -3.78585044      -5.24868785       2.65939762
S       -6.64804867      -5.82931058       2.00303265
C       -7.56971223      -4.78629391       0.98461775
C       -8.88137865      -4.96286996       0.77323803
C       -9.73353240      -4.09644167      -0.04179154
C       -9.97620297      -4.41212414      -1.38315945
C      -10.79380375      -3.59005020      -2.16163540
C      -11.37300857      -2.45053677      -1.60324518
C      -11.13071285      -2.13791910      -0.26658946
Br     -11.91691392      -0.59410085       0.49136564
C      -10.31594738      -2.95405997       0.51816039
C       -6.69185694      -3.70953116       0.44369056
O       -7.04558821      -2.86804476      -0.36937426
C       -1.89735529      -1.64856312      -0.29935679
H        0.12519763      -0.32599881      -2.71069858
H       -1.27404581      -1.80720788      -4.11877009
H       -3.05366042      -3.16771641      -3.10492625
H       -4.41412844      -3.51470576      -1.28630346
H       -4.94219871      -1.85554777       0.42207251
H       -3.76127478      -2.65981981       1.47144875
H       -9.40779433      -5.79513323       1.23631797
H       -9.52748852      -5.29460584      -1.83357890
H      -10.97545500      -3.83586065      -3.20484242
H      -12.00563542      -1.81417021      -2.21636241
H      -10.13253118      -2.70032306       1.55870737
H       -2.00613829      -1.61980147       0.77951327
C       -0.88293024       0.88293024       0.88293024
C       -2.22080368       1.06693398       0.55031620
C       -3.02441968       1.84724527       1.37519980
C       -2.47859804       2.45442148       2.51079496
C       -1.11667820       2.32588728       2.82747375
N       -0.64339681       2.92314566       4.00970125
C        0.75256663       3.33287494       4.04073760
N        1.00816825       3.92377175       5.33697963
C        1.44598948       3.22215031       6.43765230
S        1.79285308       1.59588510       6.57210864
S        1.64575499       4.32325434       7.79682725
C        1.20303259       5.70699247       6.86742850
C        1.24481684       6.95074741       7.36508001
C        0.92500197       8.17183055       6.62493703
C       -0.36202154       8.71659454       6.69287047
C       -0.66827476       9.88511246       5.99210214
C        0.30975640      10.51453932       5.22200759
C        1.59158664       9.97081214       5.15599589
Br       2.91830351      10.82453317       4.11341947
C        1.90602750       8.80442835       5.85344611
C        0.81720080       5.28401367       5.49088468
O        0.38187638       6.03484146       4.63004216
C       -0.33709558       1.48948029       2.01869933
H       -2.64652782       0.59650209      -0.33153014
H       -4.07773306       1.98019401       1.14209672
H       -3.13443865       3.04331082       3.14855361
H       -1.24070956       3.70690074       4.26752736
H        0.94750339       4.07043145       3.25274592
H        1.43093140       2.48902436       3.89155288
H        1.55132377       7.12299810       8.39493526
H       -1.13622571       8.23420507       7.28524248
H       -1.67086729      10.30212789       6.04316291
H        0.06284652      11.42187093       4.67714363
H        2.90804864       8.38829086       5.79390464
H        0.70000905       1.28466203       2.26177350
C        0.88293024      -0.88293024       0.88293024
C        2.07685294      -1.38504695       0.37615397
C        2.88862665      -2.16262629       1.19561182
C        2.48909942      -2.44990038       2.50481469
C        1.25952498      -1.99914451       3.01136973
N        0.94105311      -2.28367413       4.35151647
C       -0.46844800      -2.39321172       4.69628219
N       -0.55279735      -2.69640892       6.10897157
C       -0.63722112      -1.74782679       7.10320745
S       -0.67428151      -0.08581945       6.96360272
S       -0.73994560      -2.54428753       8.66998467
C       -0.72988878      -4.12379757       7.97747960
C       -0.87716314      -5.23315726       8.71501646
C       -0.92060247      -6.59942555       8.19294253
C        0.24475278      -7.37287983       8.15385396
C        0.20489333      -8.67912367       7.66147235
C       -0.99890177      -9.21817225       7.20752004
C       -2.15902992      -8.44644359       7.24780773
Br      -3.79156517      -9.17722388       6.63399042
C       -2.12809684      -7.14116517       7.73877862
C       -0.56393365      -4.02225808       6.49937311
O       -0.44186729      -4.97791296       5.74696157
C        0.48352966      -1.16956832       2.19217722
H        2.38872918      -1.16337333      -0.64060274
H        3.83637744      -2.54165160       0.82199473
H        3.15244799      -3.04412237       3.12973272
H        1.43903794      -3.11747557       4.65862415
H       -0.93791495      -3.19714517       4.11644375
H       -1.01281481      -1.46700967       4.49545099
H       -0.99454643      -5.16633643       9.79481958
H        1.19156391      -6.96435145       8.49975790
H        1.11355671      -9.27485378       7.62774759
H       -1.02120475     -10.23439964       6.82297314
H       -3.03806077      -6.54780927       7.76439836
H       -0.43460482      -0.72276732       2.55826399
