149
Properties=species:S:1:pos:R:3 pbc="F F F"
C        0.00000000       0.00000000       0.00000000
C        0.88293024       0.88293024      -0.88293024
C        0.32265638       1.54550996      -1.96988752
C        1.12635823       2.37034856      -2.75015797
C        2.48576561       2.50703702      -2.45101185
C        3.07805373       1.79912958      -1.39285591
N        4.43964479       2.01933816      -1.11726076
C        5.18485590       0.92776219      -0.50842782
N        6.54972422       1.37439599      -0.32846293
C        7.01937263       1.99928466       0.80484416
S        6.19786955       2.38259325       2.20532214
S        8.73300160       2.35527179       0.61394679
C        8.81366766       1.61569825      -0.94202248
C        9.96342424       1.48862795      -1.61895839
C       10.11404222       0.83719447      -2.92052892
C       10.07909226       1.59823521      -4.09415909
C       10.22840596       0.97974986      -5.33733353
C       10.41438193      -0.40063064      -5.41303922
C       10.44960571      -1.15717038      -4.24278607
C       10.30204744      -0.54721628      -2.99701580
C        7.45585557       1.15334244      -1.34849954
O        7.18574696       0.66235665      -2.43490363
C        2.24206660       1.01992790      -0.58328070
H       -0.73293289       1.44031244      -2.20412021
H        0.69779184       2.91419123      -3.58804071
H        3.08654394       3.17366468      -3.06609446
H        4.91798335       2.33954214      -1.95761217
H        5.16664971       0.04711112      -1.16191314
H        4.77125036       0.63976489       0.46136940
H       10.89380701       1.86998510      -1.20281747
H        9.92989136       2.67474613      -4.05103577
H       10.19521889       1.57386722      -6.24707198
H       10.52678344      -0.87497220      -6.38435680
H       10.32967718      -1.14660106      -2.09107075
H        2.62666317       0.51760779       0.29784448
C       10.64276385      -2.58204404      -4.32040693
C       10.80453380      -3.77537572      -4.38541440
Br      11.06610211      -5.70489213      -4.49052598
C       -0.88293024      -0.88293024      -0.88293024
C       -0.61528589      -0.97834703      -2.24442095
C       -1.40470414      -1.80701575      -3.03514487
C       -2.46722741      -2.51382637      -2.46276071
C       -2.78600406      -2.38243170      -1.10160347
N       -3.83730890      -3.15820471      -0.58073010
C       -4.56040686      -2.62429959       0.56366053
N       -5.59078998      -3.57769826       0.91590510
C       -5.42232576      -4.60656039       1.81507302
S       -4.06860322      -5.00944518       2.70290774
S       -6.92512422      -5.51183202       1.96262964
C       -7.77100832      -4.47495041       0.87457034
C       -9.07995252      -4.61249790       0.62143983
C       -9.87014292      -3.74695286      -0.25466982
C      -10.07648425      -4.10299603      -1.59200628
C      -10.83509827      -3.28162837      -2.42876272
C      -11.39141541      -2.10247677      -1.93289834
C      -11.18539395      -1.74965459      -0.60017286
C      -10.42961587      -2.56476525       0.24253416
C       -6.83544407      -3.45069059       0.32843711
O       -7.12885280      -2.62768277      -0.52647167
C       -1.94494347      -1.59004729      -0.31028443
H        0.20929395      -0.42983156      -2.69096216
H       -1.19265412      -1.91125837      -4.09611129
H       -3.05603961      -3.16945478      -3.10080869
H       -4.49208733      -3.40071049      -1.32233984
H       -5.01904158      -1.66206583       0.30543344
H       -3.90654503      -2.46858239       1.42548158
H       -9.65276978      -5.40792543       1.09408563
H       -9.64485651      -5.01684266      -1.99397409
H      -10.98851583      -3.55907906      -3.46856319
H      -11.97800815      -1.46705340      -2.59110648
H      -10.27404934      -2.27955910       1.27946157
H       -2.09083855      -1.51773391       0.76214598
C      -11.76050403      -0.53307645      -0.08754626
C      -12.24215872       0.48580774       0.34177851
Br     -13.02095362       2.13325730       1.03596036
C       -0.88293024       0.88293024       0.88293024
C       -2.26660136       0.80754154       0.76391096
C       -3.06304673       1.59215087       1.59166715
C       -2.46966772       2.46063729       2.51350947
C       -1.07454287       2.59081821       2.60467815
N       -0.54322057       3.44705561       3.58596752
C        0.74969233       4.05688126       3.31385698
N        1.08692203       4.89465442       4.44485074
C        1.79690963       4.46668890       5.54403386
S        2.43643382       2.95740000       5.85417448
S        2.00056905       5.80399343       6.67090223
C        1.19275101       6.92517560       5.63896379
C        1.09104089       8.22877153       5.93327995
C        0.45896461       9.24246296       5.08826726
C       -0.87878666       9.59531180       5.29738810
C       -1.48274794      10.56663813       4.49610329
C       -0.75281387      11.18999530       3.48398135
C        0.57998328      10.83772498       3.27747970
C        1.19105930       9.86910658       4.07379968
C        0.68777166       6.21783095       4.42763826
O        0.00698123       6.73566253       3.55432594
C       -0.28940439       1.75083898       1.80503183
H       -2.72939291       0.13388648       0.04822037
H       -4.14611689       1.52617847       1.52772842
H       -3.11656157       3.04814597       3.16159554
H       -1.22282277       4.16706515       3.82524974
H        0.69567063       4.66717925       2.40416535
H        1.53463136       3.30911604       3.17516117
H        1.51122102       8.62017473       6.85765586
H       -1.46188449       9.11432399       6.07946478
H       -2.52385568      10.83402184       4.65828056
H       -1.23075716      11.94274392       2.86266695
H        2.23021025       9.60102333       3.90333379
H        0.79180996       1.74616836       1.89206808
C        1.33423415      11.48183155       2.23352935
C        1.96591926      12.02127081       1.35922093
Br       2.98730065      12.89349846      -0.05446184
C        0.88293024      -0.88293024       0.88293024
C        1.89224440      -1.64353463       0.30227483
C        2.71015658      -2.42085044       1.11585774
C        2.49728531      -2.44861665       2.49791253
C        1.44584656      -1.73222874       3.09196393
N        1.31760448      -1.76640363       4.49223561
C       -0.01595226      -1.58979359       5.04720459
N        0.09366999      -1.67082277       6.48809038
C        0.31152127      -0.58987002       7.31242184
S        0.48835757       1.01818533       6.90496842
S        0.35874005      -1.12725179       8.98833476
C        0.02884642      -2.76858571       8.57395625
C       -0.14983418      -3.72173379       9.49911098
C       -0.47326548      -5.12186990       9.22316119
C        0.54741450      -6.07601070       9.14806135
C        0.24094748      -7.41395228       8.89058960
C       -1.08581364      -7.80419026       8.70841390
C       -2.10143897      -6.85243243       8.78422794
C       -1.80405390      -5.51414836       9.04175249
C       -0.04069263      -2.90720164       7.09118854
O       -0.18258776      -3.96694725       6.49864775
C        0.67028029      -0.91009066       2.26490425
H        2.05891749      -1.62363131      -0.77104903
H        3.51891245      -3.00146586       0.67964547
H        3.16406548      -3.04997598       3.11226162
H        1.73610394      -2.61919694       4.85983679
H       -0.68477166      -2.37855613       4.68188951
H       -0.44889603      -0.62401722       4.77452465
H       -0.07523457      -3.48352956      10.55831458
H        1.58689264      -5.78573410       9.28304652
H        1.03730857      -8.15120888       8.82764064
H       -1.31598925      -8.84673737       8.50541991
H       -2.60336986      -4.78014405       9.09737268
H       -0.10119666      -0.26933934       2.67828380
C       -3.47132981      -7.25504656       8.59741000
C       -4.61861339      -7.59223590       8.44094997
Br      -6.47367390      -8.13744253       8.18796733
