189
Properties=species:S:1:pos:R:3 pbc="F F F"
C        0.00000000       0.00000000       0.00000000
O        5.18942473       4.08733974      -7.47966293
C        4.43142293       3.41584779      -6.77772171
N        4.27427052       3.72896911      -5.44432549
N        3.49866720       2.98534319      -4.61497671
C        3.37632467       3.33669011      -3.36609310
C        4.04113196       4.54867904      -2.74525780
C        2.50401033       2.49672795      -2.48599886
C        1.80836483       3.05178871      -1.40447254
C        0.99971141       2.24204134      -0.60057005
C        0.88157854       0.88157854      -0.88157854
C        1.55844962       0.32194839      -1.96323598
C        2.36633216       1.13018606      -2.76766443
C        3.62557040       2.21458753      -7.28604761
O        3.87334894       1.86437047      -8.64516079
C        4.73923946       0.82056569      -8.84493583
C        5.91008551       0.66414142      -8.08997196
C        6.79735678      -0.39815059      -8.32597386
C        8.02791492      -0.52608639      -7.47361816
C        6.49995076      -1.29402022      -9.35906593
Br       7.63223913      -2.76213447      -9.77253665
C        5.34751796      -1.12760056     -10.13414048
C        4.45098603      -0.06990546      -9.89351978
C        3.20062219       0.08202442     -10.75067231
C        3.55371603       0.36118335     -12.21463691
C        2.28839789      -1.14409152     -10.63610771
H        4.79269605       4.53423160      -5.11486091
H        3.46903765       5.44390241      -3.00465192
H        5.06863548       4.65554877      -3.10158179
H        4.10003944       4.46128248      -1.65697191
H        1.86527144       4.11338721      -1.18018848
H        0.46294377       2.68204774       0.23649491
H        1.46443077      -0.73709035      -2.19027308
H        2.89055940       0.68437187      -3.61056913
H        2.56872089       2.50311682      -7.23390590
H        3.75345945       1.35313253      -6.61881148
H        6.16020432       1.38797585      -7.31970906
H        8.08204209       0.27085298      -6.72363807
H        8.93052280      -0.45565616      -8.08853333
H        8.02079224      -1.47819244      -6.93336560
H        5.14530448      -1.83035710     -10.93964425
H        2.61338614       0.93885544     -10.40028182
H        4.09109339      -0.47471095     -12.67541866
H        4.18476095       1.25265983     -12.30098920
H        2.64587296       0.53508903     -12.80271671
H        2.75837246      -2.04735226     -11.03990698
H        1.35617392      -0.98267770     -11.18839288
H        2.02846604      -1.34140029      -9.59012313
O       -7.29200077      -5.63245546      -3.83197118
C       -6.60089592      -4.87174226      -3.15235426
N       -5.35086320      -4.49849046      -3.59821145
N       -4.52674968      -3.71176007      -2.86047734
C       -3.36087323      -3.37966788      -3.33856676
C       -2.83566460      -3.80431501      -4.69508919
C       -2.48530616      -2.50243131      -2.49899967
C       -1.58020160      -1.60492418      -3.07950030
C       -0.77607192      -0.79704739      -2.26920349
C       -0.88157854      -0.88157854      -0.88157854
C       -1.78843338      -1.76118492      -0.29401570
C       -2.59296715      -2.56855542      -1.10266008
C       -7.03375954      -4.29180039      -1.80064561
O       -8.29321565      -4.76210938      -1.32755516
C       -8.24434292      -5.76554503      -0.39485303
C       -7.34072125      -6.83309421      -0.49038343
C       -7.32240965      -7.86469133       0.46192094
C       -6.31974521      -8.97432197       0.31862048
C       -8.25216190      -7.81966975       1.50683518
Br      -8.32394461      -9.16484232       2.84614562
C       -9.17472171      -6.77177011       1.59243393
C       -9.18897194      -5.73098637       0.64535797
C      -10.20198209      -4.59966321       0.76832637
C      -11.63755005      -5.11262567       0.62063944
C      -10.03156783      -3.83338517       2.08453892
H       -5.07439932      -4.86737193      -4.50001731
H       -3.28082870      -3.17000193      -5.46676135
H       -3.07790005      -4.85053226      -4.89733372
H       -1.74643084      -3.72472277      -4.74714022
H       -1.49716171      -1.50358942      -4.15809601
H       -0.07677085      -0.10277535      -2.72895040
H       -1.87896192      -1.82608885       0.78743727
H       -3.29871983      -3.25198186      -0.63479870
H       -7.14794822      -3.21084904      -1.94694635
H       -6.24513959      -4.42975858      -1.05050530
H       -6.65171601      -6.88789396      -1.32827925
H       -5.68403850      -8.83039192      -0.56210272
H       -6.82626593      -9.93721750       0.20008345
H       -5.65981381      -9.00759118       1.19143959
H       -9.89552941      -6.76635832       2.40729609
H      -10.04401993      -3.87213633      -0.03636714
H      -11.91288275      -5.80362543       1.42470708
H      -11.76830608      -5.63850423      -0.33159967
H      -12.34800474      -4.27895821       0.64328426
H      -10.24975092      -4.45839457       2.95721830
H      -10.70803283      -2.97236483       2.11850856
H       -9.00707805      -3.45909907       2.18898823
O       -6.85857547       6.28272484       3.61512710
C       -6.18170833       5.52260244       2.92068167
N       -5.13331562       4.82830935       3.48594015
N       -4.32071211       4.02549318       2.75278181
C       -3.35305386       3.38278045       3.34327356
C       -3.05550131       3.45204769       4.82751980
C       -2.48522274       2.49947132       2.50204307
C       -1.88632355       1.34856880       3.02973372
C       -1.08155579       0.54187993       2.21888708
C       -0.88157854       0.88157854       0.88157854
C       -1.48375209       2.01680114       0.34308077
C       -2.28865338       2.82336743       1.15216184
C       -6.41775177       5.28379092       1.42466286
O       -7.45304942       6.07817881       0.85165197
C       -7.04194396       7.19368009       0.16911693
C       -6.00928509       8.01883653       0.63607727
C       -5.61876650       9.17113396      -0.06472041
C       -4.49340837      10.00819185       0.47384649
C       -6.30587185       9.49823876      -1.23911414
Br      -5.86861766      11.03721915      -2.26319550
C       -7.35548343       8.69424036      -1.69566590
C       -7.74257234       7.53314276      -1.00111475
C       -8.88580189       6.67386367      -1.52634663
C      -10.21198966       7.44002838      -1.52248175
C       -8.57974638       6.12461903      -2.92395133
H       -4.99078346       4.97281360       4.47819150
H       -3.75216932       2.80161988       5.36380278
H       -3.15247685       4.47564778       5.19764141
H       -2.03047516       3.14104418       5.04677449
H       -2.04684332       1.04998437       4.06201945
H       -0.62130486      -0.35005470       2.63724645
H       -1.33606251       2.28232520      -0.70077421
H       -2.75528805       3.70757142       0.72264093
H       -6.74221506       4.24111799       1.32241056
H       -5.47922628       5.38127433       0.86490286
H       -5.50959792       7.78625504       1.57203626
H       -4.08779289       9.58789048       1.40084977
H       -4.84186470      11.02048581       0.70104947
H       -3.67130468      10.05235733      -0.24769661
H       -7.88216183       8.97706008      -2.60463028
H       -9.02413859       5.80316927      -0.87478446
H      -10.19308003       8.29972023      -2.20099917
H      -10.44546043       7.81147874      -0.51852919
H      -11.03379024       6.78779098      -1.83790252
H       -8.50282093       6.92059706      -3.67249080
H       -9.37111781       5.44092416      -3.25015287
H       -7.63491066       5.56977495      -2.92749672
O        5.65580907      -3.82088834       7.27973000
C        4.89502175      -3.14079941       6.58917127
N        4.51032059      -3.59251798       5.34472654
N        3.72300737      -2.85503314       4.52094659
C        3.37981710      -3.33869508       3.36059569
C        3.79176125      -4.70156537       2.84174218
C        2.50233841      -2.49911504       2.48528369
C        1.59483625      -3.07959942       1.59019040
C        0.78700112      -2.26927752       0.78604416
C        0.88157854      -0.88157854       0.88157854
C        1.77124013      -0.29389924       1.77849463
C        2.57858284      -1.10256265       2.58303716
C        4.32713208      -1.78231211       7.01676136
O        4.80913305      -1.30395551       8.26979163
C        5.81846686      -0.37842121       8.20785291
C        6.87920424      -0.48725732       7.29773733
C        7.91703712       0.45789319       7.26603611
C        9.01886181       0.30033785       6.25692274
C        7.88534489       1.50931984       8.18897141
Br       9.23995282       2.83994099       8.24262948
C        6.84431762       1.60821907       9.11795934
C        5.79730620       0.66833162       9.14562576
C        4.67372326       0.80577237      10.16536804
C        5.19539222       0.66427579      11.59841986
C        3.91518094       2.12596864       9.99120178
H        4.87124563      -4.49864123       5.07190170
H        3.15530072      -5.46591108       3.29638019
H        4.83821091      -4.90925729       3.07829783
H        3.70444480      -4.76040295       1.75344608
H        1.48568720      -4.15801829       1.51514165
H        0.08493114      -2.72900568       0.09455978
H        1.84402994       0.78767388       1.86125744
H        3.26990601      -0.63460353       3.28099086
H        3.24601914      -1.92051639       7.13920807
H        4.46478916      -1.03844598       6.22216833
H        6.92369759      -1.33012154       6.61407009
H        8.86470730      -0.58364717       5.62817866
H        9.98434678       0.17869199       6.75774520
H        9.05353168       1.16845203       5.59088576
H        6.84927042       2.42793012       9.83325133
H        3.93974589       0.00498053      10.01775804
H        5.89363490       1.46547882      11.86364502
H        5.71572610      -0.29060215      11.73208173
H        4.36672719       0.69734593      12.31429744
H        4.54751078       2.99584278      10.19925918
H        3.05901025       2.17031969      10.67319854
H        3.53467547       2.22605589       8.96856930
