109
Properties=species:S:1:pos:R:3 pbc="F F F"
C        0.00000000       0.00000000       0.00000000
C        0.88238708       0.88238708      -0.88238708
C        0.46058566       2.16535579      -1.21639898
C        1.26939849       2.96944698      -2.02622464
C        2.49987106       2.50195687      -2.51035797
C        3.30363877       3.39297263      -3.36741337
H        2.87653511       4.37738477      -3.53574808
N        4.46689636       2.97329201      -3.88827708
N        5.02653577       3.98073157      -4.72831948
C        6.25290268       3.92770715      -5.37095342
O        6.57528965       4.92338911      -6.03185535
C        7.11557505       2.75872870      -5.26680223
C        6.99303309       1.49793850      -4.70482321
C        8.20567460       0.80442652      -4.93770368
C        9.00701818       1.67367415      -5.63524744
O        8.36552330       2.84837694      -5.84644366
C        2.90429081       1.20719968      -2.15833847
C        2.10126832       0.39695983      -1.34831379
H       -0.48717827       2.55461500      -0.85938853
H        0.93404888       3.97042826      -2.28537308
H        4.50925079       4.83899160      -4.85345532
H        6.12092973       1.12918577      -4.18484143
H        8.45292583      -0.20054961      -4.63086724
H        3.85556820       0.82637601      -2.52192042
H        2.44184340      -0.60143554      -1.09549986
C       10.34455080       1.38662754      -6.08492593
C       11.46473436       1.14622599      -6.46153166
Br      13.27597644       0.75751703      -7.07047129
C       -0.88238708      -0.88238708      -0.88238708
C       -1.46965866      -2.02473976      -0.34794201
C       -2.27465808      -2.83151060      -1.15890143
C       -2.49796992      -2.50883502      -2.50538096
C       -3.34859093      -3.40342331      -3.31201053
H       -3.76693575      -4.24902367      -2.77370855
N       -3.55540833      -3.15810896      -4.61494816
N       -4.35325792      -4.18897501      -5.19335389
C       -4.82775332      -4.22930525      -6.49450467
O       -5.53555129      -5.19894938      -6.79603345
C       -4.50954040      -3.17917916      -7.45238641
C       -3.69187249      -2.06035375      -7.44356856
C       -3.82040070      -1.42478072      -8.70262338
C       -4.70584948      -2.18969884      -9.42039145
O       -5.12381382      -3.24959887      -8.68693121
C       -1.89764580      -1.35194269      -3.02024047
C       -1.09159819      -0.53949467      -2.21544907
H       -1.31395600      -2.30222792       0.68935866
H       -2.72963137      -3.72376509      -0.73645376
H       -4.63949298      -4.95778877      -4.60441596
H       -3.07541782      -1.74516515      -6.61437396
H       -3.32608678      -0.52389672      -9.03325997
H       -2.05948815      -1.08312982      -4.06124666
H       -0.63954054       0.34827566      -2.64464284
C       -5.13673456      -1.91308679     -10.76628291
C       -5.49760081      -1.68142420     -11.89346700
Br      -6.08109102      -1.30684538     -13.71602836
C       -0.88238708       0.88238708       0.88238708
C       -0.49592676       2.19057795       1.15583572
C       -1.30453311       2.99471183       1.96582517
C       -2.49957997       2.50233418       2.51027174
C       -3.30464572       3.39516999       3.36420906
H       -2.90786528       4.39936558       3.48243710
N       -4.43301087       2.95422206       3.94123252
N       -4.99907105       3.97125315       4.76526263
C       -6.19949258       3.89870180       5.45336887
O       -6.53443862       4.90579477       6.09030073
C       -7.02235801       2.69727052       5.42147745
C       -6.87393947       1.42200246       4.89985286
C       -8.05177337       0.69540972       5.20062171
C       -8.85920644       1.56081037       5.89592296
O       -8.25370270       2.76410404       6.04253715
C       -2.86888316       1.18232506       2.21862074
C       -2.06584399       0.37184066       1.40885728
H        0.42404915       2.59954536       0.75132906
H       -0.99681551       4.01553786       2.17749686
H       -4.50916334       4.85104452       4.84148986
H       -6.00776204       1.06536929       4.36182560
H       -8.27302694      -0.32805369       4.93827022
H       -3.79244395       0.78189774       2.62952293
H       -2.37865265      -0.64635592       1.20361099
C      -10.16892002       1.24365579       6.40352845
C      -11.26580514       0.97803884       6.82864804
Br     -13.03937560       0.54855869       7.51603047
C        0.88238708      -0.88238708       0.88238708
C        1.20880839      -2.16869562       0.46483642
C        2.01453329      -2.97459113       1.27594568
C        2.49766004      -2.50754391       2.50698194
C        3.33494523      -3.40725850       3.32182104
H        3.53728175      -4.37670996       2.87567625
N        3.78402880      -3.01916090       4.52527575
N        4.51343903      -4.07527824       5.14686956
C        5.18368062      -4.01010654       6.35777608
O        5.78849520      -5.03046675       6.71157217
C        5.17627051      -2.79856235       7.16627311
C        4.53283150      -1.57361427       7.08934903
C        4.95289338      -0.79774310       8.19716831
C        5.82782210      -1.58894196       8.89917571
O        5.96793249      -2.79492227       8.29748914
C        2.15732735      -1.20764457       2.90485703
C        1.35238040      -0.39517054       2.09899100
H        0.84852320      -2.55939571      -0.48109365
H        2.26503390      -3.97937743       0.94543889
H        4.58923082      -4.95524948       4.65721741
H        3.83948328      -1.28114218       6.31433147
H        4.65018632       0.20904994       8.44210708
H        2.52299995      -0.82590102       3.85496366
H        1.10520151       0.60570423       2.43641043
C        6.50712467      -1.20086153      10.10811806
C        7.07604056      -0.87584417      11.12060728
Br       7.99592945      -0.35031859      12.75771672
