130
Properties=species:S:1:pos:R:3 pbc="F F F"
C        1.79229111       1.79229111      -1.79229111
C        1.37048969       3.07525981      -2.12630301
C        2.17930252       3.87935100      -2.93612866
C        3.40977508       3.41186089      -3.42026199
C        4.21354280       4.30287665      -4.27731739
H        3.78643914       5.28728880      -4.44565210
N        5.37680038       3.88319603      -4.79818111
N        5.93643980       4.89063560      -5.63822351
C        7.16280670       4.83761117      -6.28085744
O        7.48519368       5.83329314      -6.94175937
C        8.02547907       3.66863273      -6.17670625
C        7.90293711       2.40784253      -5.61472723
C        9.11557862       1.71433054      -5.84760771
C        9.91692221       2.58357818      -6.54515146
O        9.27542732       3.75828096      -6.75634768
C        3.81419483       2.11710371      -3.06824249
C        3.01117234       1.30686386      -2.25821781
H        0.42272575       3.46451903      -1.76929255
H        1.84395291       4.88033229      -3.19527710
H        5.41915482       5.74889563      -5.76335934
H        7.03083375       2.03908979      -5.09474546
H        9.36282986       0.70935442      -5.54077127
H        4.76547223       1.73628003      -3.43182444
H        3.35174742       0.30846849      -2.00540388
C       11.25445482       2.29653156      -6.99482995
C       12.37463838       2.05613002      -7.37143569
Br      14.18588047       1.66742106      -7.98037531
C       -1.79229111      -1.79229111      -1.79229111
C       -1.66412783      -3.17626616      -1.73165851
C       -2.47148764      -3.98089625      -2.54239829
C       -3.40816495      -3.41450464      -3.41922837
C       -4.22395247      -4.31453932      -4.25524505
H       -4.04622825      -5.37458112      -4.09857067
N       -5.10232194      -3.81672739      -5.13912819
N       -5.72223098      -4.87227613      -5.87079179
C       -6.73162993      -4.73909683      -6.81054856
O       -7.16174860      -5.78521546      -7.31328213
C       -7.25797170      -3.43232692      -7.18051942
C       -6.92594216      -2.12128228      -6.87828243
C       -7.83799331      -1.27934054      -7.56018303
C       -8.67861182      -2.11731981      -8.24972021
O       -8.34016985      -3.41214361      -8.03774251
C       -3.52054959      -2.01825398      -3.46073745
C       -2.71706707      -1.20658437      -2.65260256
H       -0.94707518      -3.64421101      -1.06525114
H       -2.36589564      -5.06158995      -2.49207670
H       -5.43516870      -5.82062025      -5.67562084
H       -6.11397814      -1.81634098      -6.23434988
H       -7.86933016      -0.20045813      -7.54316725
H       -4.24178313      -1.55926713      -4.13252644
H       -2.82696045      -0.12892092      -2.70973842
C       -9.77083594      -1.68984768      -9.08513271
C      -10.68557364      -1.33183977      -9.78479069
Br     -12.16462713      -0.75297125     -10.91607845
C       -1.79229111       1.79229111       1.79229111
C       -3.11394497       1.42845251       2.02965502
C       -3.91956506       2.23955612       2.83566100
C       -3.41694468       3.41739223       3.40756106
C       -4.31763342       4.23565318       4.24045024
H       -5.31808527       3.83258217       4.36871260
N       -3.89332129       5.39197128       4.77288495
N       -4.95404386       6.03144580       5.47980923
C       -4.86329002       7.20128188       6.21670342
O       -5.89532320       7.57813469       6.78678831
C       -3.61340028       7.94272308       6.31469469
C       -2.36112588       7.83294053       5.73144045
C       -1.55343050       8.87449854       6.24958784
C       -2.35369028       9.57247610       7.11948546
O       -3.59461277       9.03019966       7.16524354
C       -2.08199347       3.76158839       3.15595916
C       -1.26958712       2.95531978       2.35134711
H       -3.53248118       0.52455495       1.59950121
H       -4.95194157       1.95124667       3.01637405
H       -5.86067307       5.58663342       5.48410329
H       -2.07171943       7.07972345       5.01322611
H       -0.52061250       9.08003368       6.01230936
H       -1.67246580       4.66985795       3.59125295
H       -0.24093714       3.25056371       2.17411893
C       -1.94150559      10.72251158       7.88179917
C       -1.59630091      11.68566629       8.52023689
Br      -1.03813414      13.24300599       9.55253670
C        1.79229111      -1.79229111       1.79229111
C        3.06627728      -1.35960461       2.14617062
C        3.87226013      -2.17070975       2.95181230
C        3.41759665      -3.41672571       3.40757560
C        4.31693079      -4.23057368       4.24623237
H        5.27565953      -3.77234673       4.47137377
N        3.94129251      -5.44720200       4.66968301
N        4.99557546      -6.06360648       5.40611695
C        4.93936857      -7.28611686       6.05578988
O        5.95554741      -7.63334206       6.67135672
C        3.74137746      -8.11363152       6.01580907
C        2.52577380      -8.04584685       5.35388622
C        1.76137391      -9.17258602       5.74355695
C        2.54978821      -9.87597535       6.61988828
O        3.74345399      -9.25745991       6.78914207
C        2.12992605      -3.82973301       3.03988197
C        1.31743905      -3.02398742       2.23482754
H        3.44727857      -0.40183368       1.80742509
H        4.86742203      -1.82830818       3.22383208
H        5.86616194      -5.56125876       5.50398908
H        2.23187243      -7.26444877       4.66834781
H        0.76365085      -9.42862656       5.42067814
H        1.75786072      -4.79162382       3.38409215
H        0.32624680      -3.37329128       1.96608171
C        2.17057973     -11.10182572       7.27341088
C        1.85299262     -12.12847541       7.82073606
Br       1.33948113     -13.78848112       8.70571457
C       -0.00445707       0.01189536      -1.78238275
H       -0.66409135       0.67374010      -2.43557963
H        0.65740317      -0.63156657      -2.45157240
C       -0.90989263      -0.90692880      -0.91072765
C        0.90977584       0.90977584      -0.90977584
C       -0.00465871       1.77757030       0.00794375
H       -0.66225468       2.44313916      -0.64384735
H        0.64322798       2.43503045       0.67728295
C       -1.78241447       0.00034974      -0.00472694
H       -2.45427497      -0.65498947       0.64260836
H       -2.43311707       0.67328779      -0.65473579
C       -0.91132561       0.90220522       0.91563759
C       -0.01476271      -0.02253852       1.78660255
H       -0.67934791      -0.69751639       2.42135241
H        0.63392994       0.61504881       2.47327442
C        0.01484550      -1.77751727      -0.01636693
H        0.67870853      -2.42144646      -0.68295456
H       -0.62264859      -2.45592969       0.64226336
C        1.78714474       0.01002794       0.00389507
H        2.44202412       0.67113390       0.66197326
H        2.45385902      -0.65136977      -0.64189061
C        0.91606151      -0.90478549       0.90901405
