122
Properties=species:S:1:pos:R:3 pbc="F F F"
C        1.79229111       1.79229111      -1.79229111
C        1.37048969       3.07525981      -2.12630301
C        2.17930252       3.87935100      -2.93612866
C        3.40977508       3.41186089      -3.42026199
C        4.21354280       4.30287665      -4.27731739
H        3.78643914       5.28728880      -4.44565210
N        5.37680038       3.88319603      -4.79818111
N        5.93643980       4.89063560      -5.63822351
C        7.16280670       4.83761117      -6.28085744
O        7.48519368       5.83329314      -6.94175937
C        8.02547907       3.66863273      -6.17670625
C        7.90293711       2.40784253      -5.61472723
C        9.11557862       1.71433054      -5.84760771
C        9.91692221       2.58357818      -6.54515146
Br      11.65087185       2.21145687      -7.12810536
O        9.27542732       3.75828096      -6.75634768
C        3.81419483       2.11710371      -3.06824249
C        3.01117234       1.30686386      -2.25821781
H        0.42272575       3.46451903      -1.76929255
H        1.84395291       4.88033229      -3.19527710
H        5.41915482       5.74889563      -5.76335934
H        7.03083375       2.03908979      -5.09474546
H        9.36282986       0.70935442      -5.54077127
H        4.76547223       1.73628003      -3.43182444
H        3.35174742       0.30846849      -2.00540388
C       -1.79229111      -1.79229111      -1.79229111
C       -1.59075376      -3.16868449      -1.81261425
C       -2.39843393      -3.97314996      -2.62319829
C       -3.40843579      -3.41392393      -3.41953824
C       -4.22101896      -4.31269772      -4.26002017
H       -3.98139749      -5.36827638      -4.16970616
N       -5.16975914      -3.81837555      -5.07004283
N       -5.77348220      -4.86704019      -5.82477650
C       -6.83732401      -4.74053754      -6.70341377
O       -7.23997259      -5.78127089      -7.23900271
C       -7.44861661      -3.44675244      -6.97544900
C       -7.16803696      -2.13687311      -6.62059680
C       -8.15705124      -1.31145625      -7.20900938
C       -8.98969718      -2.15713578      -7.89881888
Br     -10.48808650      -1.62531999      -8.87702759
O       -8.57487570      -3.44104515      -7.77413511
C       -3.59383665      -2.02541566      -3.38028872
C       -2.79052137      -1.21400537      -2.57172726
H       -0.81607891      -3.63080379      -1.20965463
H       -2.23540232      -5.04777906      -2.63638091
H       -5.42844416      -5.80732040      -5.69564522
H       -6.33927195      -1.82198653      -6.00341052
H       -8.24232563      -0.23807777      -7.13255215
H       -4.37251357      -1.57218013      -3.98888301
H       -2.95805393      -0.14228204      -2.56528382
C       -1.79229111       1.79229111       1.79229111
C       -3.09380795       1.39569168       2.08255287
C       -3.89959018       2.20680218       2.88838982
C       -3.41724748       3.41709402       3.40755646
C       -4.31740579       4.23328404       4.24304701
H       -5.30014496       3.80390725       4.41532782
N       -3.91382581       5.41841813       4.72593358
N       -4.97206239       6.04707721       5.44615930
C       -4.89585549       7.24194528       6.14347454
O       -5.92130562       7.60477929       6.73416129
C       -3.66770091       8.02421297       6.17890417
C       -2.43110461       7.93454411       5.55985816
C       -1.64131367       9.01636807       6.01983513
C       -2.43618600       9.71665535       6.89281049
Br      -1.91927567      11.25387511       7.81728330
O       -3.65728102       9.13819519       6.99457976
C       -2.10226088       3.79402736       3.10325278
C       -1.28980957       2.98800009       2.29844435
H       -3.49648191       0.46615483       1.69390061
H       -4.91625135       1.89275738       3.11055357
H       -5.86355875       5.57495157       5.49289946
H       -2.14016851       7.16817291       4.85632758
H       -0.62332451       9.24593804       5.74369299
H       -1.70856731       4.72781799       3.49719140
H       -0.27698417       3.30896858       2.07966705
C        1.79229111      -1.79229111       1.79229111
C        3.06367219      -1.35658742       2.15179290
C        3.86967305      -2.16769139       2.95741774
C        3.41762673      -3.41669266       3.40757857
C        4.31687836      -4.23034136       4.24651712
H        5.27334451      -3.76970947       4.47632606
N        3.94386568      -5.44958884       4.66472300
N        4.99774917      -6.06494939       5.40260034
C        4.94343990      -7.28977480       6.04806062
O        5.95872905      -7.63568552       6.66583161
C        3.74832347      -8.12108811       6.00140648
C        2.53468605      -8.05511774       5.33570308
C        1.77273049      -9.18564401       5.71914238
C        2.56057516      -9.88932432       6.59575236
Br       2.07143957     -11.48288597       7.43610854
O        3.75163074      -9.26744871       6.77097652
C        2.13254187      -3.83271678       3.03428238
C        1.32005268      -3.02699564       2.22920570
H        3.44262332      -0.39645636       1.81745766
H        4.86279995      -1.82291847       3.23384387
H        5.86634696      -5.56006716       5.50499566
H        2.24046416      -7.27243282       4.65177202
H        0.77692478      -9.44389745       5.39213332
H        1.76252223      -4.79695632       3.37409815
H        0.33090739      -3.37866852       1.95604388
C       -0.00445707       0.01189536      -1.78238275
H       -0.66409135       0.67374010      -2.43557963
H        0.65740317      -0.63156657      -2.45157240
C       -0.90989263      -0.90692880      -0.91072765
C        0.90977584       0.90977584      -0.90977584
C       -0.00465871       1.77757030       0.00794375
H       -0.66225468       2.44313916      -0.64384735
H        0.64322798       2.43503045       0.67728295
C       -1.78241447       0.00034974      -0.00472694
H       -2.45427497      -0.65498947       0.64260836
H       -2.43311707       0.67328779      -0.65473579
C       -0.91132561       0.90220522       0.91563759
C       -0.01476271      -0.02253852       1.78660255
H       -0.67934791      -0.69751639       2.42135241
H        0.63392994       0.61504881       2.47327442
C        0.01484550      -1.77751727      -0.01636693
H        0.67870853      -2.42144646      -0.68295456
H       -0.62264859      -2.45592969       0.64226336
C        1.78714474       0.01002794       0.00389507
H        2.44202412       0.67113390       0.66197326
H        2.45385902      -0.65136977      -0.64189061
C        0.91606151      -0.90478549       0.90901405
