161
Properties=species:S:1:pos:R:3 pbc="F F F"
C        0.00000000       0.00000000       0.00000000
C        0.88180416       0.88180416      -0.88180416
C        1.96851451       1.54996863      -0.32627413
C        2.76840508       2.36264724      -1.13615403
C        2.49451505       2.51826098      -2.50486372
C        1.39641253       1.82932513      -3.04314780
C        0.59185272       1.01558599      -2.23722646
C        3.32032798       3.38181669      -3.34661217
C        3.35168875       3.68071445      -4.69090630
C        4.39233581       4.62310569      -4.86429553
C        4.96023155       4.87430220      -3.62158101
C        6.01563499       5.75104060      -3.24433013
H        6.24659539       5.79065750      -2.18183153
N        6.61172816       6.49971167      -4.19688181
N        7.62934543       7.39785452      -3.65336068
C        8.86315842       7.05166817      -3.16063346
S        9.43211262       5.42901735      -2.97671306
N        9.56633177       8.13507894      -2.91925072
N        8.81055907       9.21417988      -3.32433940
C        7.64692462       8.77467321      -3.79488843
C        6.60433516       9.64122169      -4.36149328
C        6.98589004      10.84498202      -4.97919539
C        6.03446831      11.71933001      -5.51321988
C        4.68278260      11.39893696      -5.42611697
C        4.27826974      10.21845201      -4.80889840
C        5.23656111       9.34820004      -4.27701195
O        4.29118551       4.09332262      -2.70524773
H        2.20543329       1.45419344       0.72957695
H        3.61433652       2.88254254      -0.68801165
H        1.14983057       1.92495373      -4.09753272
H       -0.25555557       0.49814965      -2.67778829
H        2.70760704       3.28170711      -5.45874409
H        4.71073806       5.09617810      -5.78301289
H        8.36141487       4.84921206      -3.54194146
H        8.04267118      11.09934131      -5.04514809
H        6.36289308      12.63860076      -5.98796557
H        3.22726589       9.95728298      -4.73020577
H        4.90240423       8.43591677      -3.78715356
C        3.69811184      12.29685992      -5.97178889
C        2.87345007      13.04887040      -6.42878911
Br       1.54004174      14.26480775      -7.16771983
C       -0.88180416      -0.88180416      -0.88180416
C       -0.85278717      -2.26433342      -0.72763668
C       -1.65615392      -3.06817508      -1.54287735
C       -2.49472309      -2.50450233      -2.51841432
C       -2.51092027      -1.10720700      -2.65075819
C       -1.70829027      -0.29793351      -1.83844139
C       -3.32047585      -3.34635533      -3.38192568
C       -4.26551711      -3.10355294      -4.35423944
C       -4.67727067      -4.36935324      -4.83311313
C       -3.96826033      -5.34467138      -4.14318305
C       -3.99005765      -6.76283223      -4.25811584
H       -3.29754493      -7.30444028      -3.61709921
N       -4.80837375      -7.32937453      -5.17057336
N       -4.67537751      -8.78451124      -5.22067187
C       -5.10465661      -9.68928888      -4.28151456
S       -5.80847373      -9.27110665      -2.75826265
N       -4.96539194     -10.91125187      -4.74401762
N       -4.50085346     -10.81045604      -6.03776885
C       -4.34803715      -9.52517689      -6.34327221
C       -3.91420505      -9.03434790      -7.65849718
C       -4.20989288      -9.80120422      -8.79897035
C       -3.79990743      -9.39473405     -10.07237673
C       -3.07820532      -8.21332654     -10.21630467
C       -2.76247281      -7.44189325      -9.10125410
C       -3.17662000      -7.85520517      -7.82994793
O       -3.14701765      -4.69270925      -3.25002896
H       -0.21244579      -2.73231539       0.01471141
H       -1.62167990      -4.14932925      -1.41388156
H       -3.14476672      -0.63225548      -3.39529481
H       -1.73536566       0.78051488      -1.96553159
H       -4.61778118      -2.14070158      -4.68957548
H       -5.40298257      -4.58055880      -5.60638768
H       -5.82530910      -7.94725015      -2.98000914
H       -4.77125194     -10.72772323      -8.68818540
H       -4.04881918     -10.00759677     -10.93304346
H       -2.19685359      -6.52006972      -9.19783134
H       -2.91071899      -7.24678383      -6.96797173
C       -2.65080473      -7.79099972     -11.52495619
C       -2.29285675      -7.43730100     -12.62095184
Br      -1.71408513      -6.86540009     -14.39308410
C       -0.88180416       0.88180416       0.88180416
C       -0.29986075       1.69881139       1.84608513
C       -1.11202950       2.49859197       2.65658487
C       -2.50941626       2.49260685       2.51561663
C       -3.07238068       1.66459415       1.53191063
C       -2.26460219       0.86132031       0.71874267
C       -3.35841963       3.31528021       3.37505701
C       -4.70989202       3.57372751       3.43968997
C       -4.89484392       4.45096167       4.53393144
C       -3.65308702       4.69676186       5.10626588
C       -3.29153901       5.48501260       6.23445411
H       -2.23697619       5.47991043       6.50219781
N       -4.26265066       6.12909596       6.91657503
N       -3.75186922       6.84274645       8.08594495
C       -2.99450032       7.98784932       8.09311041
S       -2.38295080       8.77494243       6.67994980
N       -2.86695596       8.42976652       9.32393895
N       -3.61050503       7.60160056      10.13697276
C       -4.17126096       6.65376664       9.39145866
C       -5.07522572       5.61924952       9.91257489
C       -5.85506509       5.90934604      11.04565633
C       -6.71368959       4.95453207      11.59879654
C       -6.79424753       3.68934908      11.02423993
C       -6.02363410       3.37326348       9.90872258
C       -5.16674577       4.33443798       9.36058935
O       -2.72261365       3.99546345       4.37167876
H        0.77745099       1.72396968       1.98353108
H       -0.64385798       3.13135404       3.40967868
H       -4.14990144       1.62984940       1.39256618
H       -2.72623606       0.22514042      -0.03099410
H       -5.47659061       3.18113971       2.79032792
H       -5.82356407       4.86766713       4.89869786
H       -2.98985821       7.96027068       5.80243951
H       -5.79081931       6.89739009      11.49895117
H       -7.30581092       5.21237635      12.47127214
H       -6.07320729       2.38930037       9.45224699
H       -4.56250063       4.06673844       8.49623549
C       -7.67467133       2.70090298      11.59118633
C       -8.41202627       1.87307937      12.06600394
Br      -9.60426684       0.53455861      12.83374387
C        0.88180416      -0.88180416       0.88180416
C        0.99325664      -0.60971715       2.24178348
C        1.80823176      -1.41521297       3.04376162
C        2.51952308      -2.49759554       2.50052113
C        2.38615407      -2.75549533       1.12723605
C        1.57289318      -1.95210282       0.31966916
C        3.38489699      -3.32784623       3.33601363
C        4.13601090      -4.46295568       3.12434292
C        4.77134171      -4.75414356       4.35425176
C        4.39334662      -3.78633700       5.27643115
C        4.76458088      -3.60792889       6.63849595
H        4.35100408      -2.73275466       7.13532568
N        5.62752138      -4.48292569       7.19787458
N        5.96682206      -4.13654636       8.57719220
C        5.15664504      -4.23787197       9.68094304
S        3.49155432      -4.70324081       9.64304790
N        5.85378122      -3.99824384      10.76863637
N        7.16264986      -3.80327772      10.38315077
C        7.24438994      -3.91187866       9.06021766
C        8.49694504      -3.81143665       8.29866844
C        9.69967529      -4.19047735       8.91991482
C       10.92359479      -4.09227389       8.25114953
C       10.95644850      -3.60277686       6.94861117
C        9.78065644      -3.20971819       6.31524552
C        8.55939578      -3.31128349       6.99109383
O        3.53374199      -2.92538651       4.63062736
H        0.45958047       0.22217290       2.69264221
H        1.88904026      -1.18944126       4.10640918
H        2.92167208      -3.58257547       0.66806946
H        1.49189021      -2.16992128      -0.74142911
H        4.22785009      -5.01690989       2.20329826
H        5.44774027      -5.56881505       4.57337373
H        3.45845125      -4.96690900       8.32720815
H        9.67666011      -4.57025548       9.94024499
H       11.83356661      -4.39800228       8.75789051
H        9.79142179      -2.82243942       5.30089345
H        7.65162363      -2.98813715       6.48571378
C       12.21433383      -3.49668591       6.25574091
C       13.26781280      -3.40783473       5.67546206
Br      14.97119918      -3.26416989       4.73720024
