182
Properties=species:S:1:pos:R:3 pbc="F F F"
C        1.79170818       1.79170818      -1.79170818
C        2.87841853       2.45987265      -1.23617816
C        3.67830911       3.27255126      -2.04605805
C        3.40441907       3.42816500      -3.41476774
C        2.30631655       2.73922915      -3.95305182
C        1.50175674       1.92549001      -3.14713048
C        4.23023200       4.29172072      -4.25651620
C        4.26159278       4.59061847      -5.60081032
C        5.30223984       5.53300971      -5.77419956
C        5.87013558       5.78420623      -4.53148503
C        6.92553902       6.66094462      -4.15423415
H        7.15649941       6.70056153      -3.09173556
N        7.52163219       7.40961570      -5.10678584
N        8.53924945       8.30775854      -4.56326470
C        9.77306244       7.96157220      -4.07053748
S       10.34201664       6.33892137      -3.88661709
N       10.47623579       9.04498296      -3.82915475
N        9.72046309      10.12408390      -4.23424343
C        8.55682864       9.68457723      -4.70479245
C        7.51423919      10.55112572      -5.27139730
C        7.89579406      11.75488605      -5.88909942
C        6.94437234      12.62923404      -6.42312390
C        5.59268663      12.30884098      -6.33602100
C        5.18817376      11.12835604      -5.71880243
C        6.14646513      10.25810406      -5.18691598
O        5.20108954       5.00322665      -3.61515175
H        3.11533731       2.36409746      -0.18032707
H        4.52424054       3.79244656      -1.59791567
H        2.05973459       2.83485775      -5.00743674
H        0.65434845       1.40805367      -3.58769232
H        3.61751107       4.19161113      -6.36864811
H        5.62064209       6.00608212      -6.69291692
H        9.27131890       5.75911609      -4.45184548
H        8.95257520      12.00924534      -5.95505211
H        7.27279710      13.54850478      -6.89786960
H        4.13716992      10.86718701      -5.64010980
H        5.81230825       9.34582079      -4.69705758
C        4.60801586      13.20676394      -6.88169291
C        3.78335409      13.95877443      -7.33869314
Br       2.44994577      15.17471177      -8.07762385
C       -1.79170818      -1.79170818      -1.79170818
C       -2.48383807      -2.86027560      -1.23035567
C       -3.28382040      -3.66977785      -2.04332017
C       -3.40214810      -3.42411507      -3.42108864
C       -2.69899721      -2.33677400      -3.96282632
C       -1.89610090      -1.52400566      -3.15427067
C       -4.22419871      -4.28134929      -4.27292092
C       -4.58613620      -4.26498606      -5.60189930
C       -5.39073623      -5.40994746      -5.80876542
C       -5.49097169      -6.09212771      -4.60272744
C       -6.16012615      -7.30468179      -4.27590984
H       -6.04913500      -7.64965946      -3.25000203
N       -6.82795273      -7.96197799      -5.24810300
N       -7.40772949      -9.22061313      -4.78193008
C       -8.48363443      -9.37783716      -3.94370054
S       -9.32239556      -8.08338850      -3.16177104
N       -8.81990500     -10.64663024      -3.88383827
N       -7.99618786     -11.33137895      -4.75122361
C       -7.15586293     -10.47118248      -5.31915291
C       -6.16206484     -10.83696155      -6.33773582
C       -6.42861393     -11.92802874      -7.18313686
C       -5.50793202     -12.33552778      -8.15327047
C       -4.30029264     -11.65552863      -8.28172733
C       -4.00734425     -10.57910949      -7.44887849
C       -4.93411227     -10.17697350      -6.48039941
O       -4.77353324      -5.37497808      -3.67095661
H       -2.41086816      -3.07992972      -0.16896396
H       -3.81797439      -4.50491479      -1.59171359
H       -2.76259942      -2.11443750      -5.02499217
H       -1.35776586      -0.69241866      -3.59990993
H       -4.30716310      -3.53003288      -6.34057434
H       -5.85299908      -5.73653304      -6.73010901
H       -8.62809292      -7.09937056      -3.75481699
H       -7.37126527     -12.46374092      -7.08186646
H       -5.74675273     -13.17908474      -8.79333401
H       -3.06779430     -10.04167142      -7.53500100
H       -4.68389999      -9.34159822      -5.82968842
C       -3.34692082     -12.07237376      -9.27717814
C       -2.54847192     -12.42148156     -10.11086818
Br      -1.25744757     -12.98595934     -11.45887448
C       -1.79170818       1.79170818       1.79170818
C       -1.50953667       1.91645874       3.14847393
C       -2.32462330       2.71878679       3.95350832
C       -3.42720282       3.40344512       3.41670388
C       -3.68781267       3.26650245       2.04428241
C       -2.87619403       2.46408907       1.23409414
C       -4.28888921       4.22736587       4.26221384
C       -5.36964768       5.05015050       4.03322339
C       -5.76974310       5.54186877       5.29783723
C       -4.92550369       5.00093002       6.25939312
C       -4.91178893       5.15498895       7.67393991
H       -4.15735925       4.58219056       8.20924668
N       -5.84640936       5.93930586       8.25231850
N       -5.74947387       5.94967373       9.71112510
C       -4.77954813       6.55211820      10.47350579
S       -3.37970999       7.34661037       9.84123474
N       -5.11188207       6.49502811      11.74346332
N       -6.35597272       5.90626316      11.81655454
C       -6.76083864       5.59732903      10.58803066
C       -8.06499057       4.99769547      10.27407616
C       -9.15448008       5.26358184      11.12171760
C      -10.41188753       4.69990488      10.88493787
C      -10.58982126       3.85264112       9.79508623
C       -9.52391549       3.56410888       8.94730786
C       -8.26838219       4.13240644       9.19069655
O       -4.01752857       4.20333513       5.59860424
H       -0.66671671       1.39719545       3.59584968
H       -2.09441748       2.80544242       5.01474288
H       -4.53278372       3.77842834       1.59081703
H       -3.10351845       2.37055091       0.17602509
H       -5.82548660       5.27137089       3.08091283
H       -6.58965680       6.21135462       5.51862971
H       -3.72223388       7.20952305       8.55052353
H       -9.01653922       5.92326450      11.97706893
H      -11.23355218       4.92952970      11.55608960
H       -9.64692175       2.90197928       8.09556569
H       -7.44330095       3.88651819       8.52536748
C      -11.88184082       3.26688725       9.54774465
C      -12.96390720       2.77631839       9.34059607
Br     -14.71351702       1.98311002       9.00565434
C        1.79170818      -1.79170818       1.79170818
C        1.39459522      -2.08796129       3.09191283
C        2.20928618      -2.88934508       3.89828716
C        3.42567076      -3.40256829       3.41911276
C        3.80165547      -3.09465820       2.10228386
C        2.99088565      -2.29230169       1.29118990
C        4.28487215      -4.22515023       4.26844654
C        5.46469421      -4.91017452       4.07815284
C        5.79096568      -5.49364834       5.32483508
C        4.80452674      -5.14319373       6.23810636
C        4.67060757      -5.44866897       7.62144124
H        3.81086324      -5.01228528       8.12564797
N        5.62357820      -6.19635651       8.21809901
N        5.38761815      -6.37244667       9.65020788
C        4.41870663      -7.14418508      10.24228041
S        3.17993309      -7.99798392       9.38963809
N        4.61855253      -7.19173556      11.54008542
N        5.77938122      -6.49660649      11.80280271
C        6.26574030      -6.01998301      10.66047502
C        7.52228504      -5.26677861      10.54769855
C        8.54684720      -5.51536484      11.47756749
C        9.75352651      -4.81053963      11.43266414
C        9.94418156      -3.83806187      10.45530517
C        8.94054039      -3.56477064       9.53002121
C        7.73557163      -4.27469544       9.58121811
O        3.88447193      -4.37095108       5.56404492
H        0.46163714      -1.70367357       3.49445114
H        1.88810377      -3.11117997       4.91531904
H        4.73654439      -3.47082425       1.69466044
H        3.30817246      -2.06427474       0.27764725
H        6.03162264      -4.98283654       3.16331113
H        6.65271707      -6.10045820       5.56646586
H        3.62905105      -7.69076789       8.16246153
H        8.39833830      -6.27320970      12.24532465
H       10.52626059      -5.03023125      12.16267964
H        9.07365966      -2.80633663       8.76447043
H        6.95714920      -4.03986599       8.85817144
C       11.18376430      -3.10690952      10.40579890
C       12.22191484      -2.49456942      10.36433739
Br      13.90051647      -1.50446727      10.29729765
C       -0.00445707       0.01189536      -1.78238275
H       -0.66409135       0.67374010      -2.43557963
H        0.65740317      -0.63156657      -2.45157240
C       -0.90989263      -0.90692880      -0.91072765
C        0.90977584       0.90977584      -0.90977584
C       -0.00465871       1.77757030       0.00794375
H       -0.66225468       2.44313916      -0.64384735
H        0.64322798       2.43503045       0.67728295
C       -1.78241447       0.00034974      -0.00472694
H       -2.45427497      -0.65498947       0.64260836
H       -2.43311707       0.67328779      -0.65473579
C       -0.91132561       0.90220522       0.91563759
C       -0.01476271      -0.02253852       1.78660255
H       -0.67934791      -0.69751639       2.42135241
H        0.63392994       0.61504881       2.47327442
C        0.01484550      -1.77751727      -0.01636693
H        0.67870853      -2.42144646      -0.68295456
H       -0.62264859      -2.45592969       0.64226336
C        1.78714474       0.01002794       0.00389507
H        2.44202412       0.67113390       0.66197326
H        2.45385902      -0.65136977      -0.64189061
C        0.91606151      -0.90478549       0.90901405
