178
Properties=species:S:1:pos:R:3 pbc="F F F"
C        0.41003067       6.39368641      -1.62308130
C        0.70973970       5.74790630      -2.96453431
O        2.06037559       5.27946745      -3.01270628
C        2.26302642       3.94370179      -2.77309283
C        1.45335501       3.13402708      -1.97995357
C        1.79284096       1.79284096      -1.79284096
C        2.92368993       1.24511247      -2.39863675
C        3.73354178       2.04001366      -3.21357907
C        4.90238729       1.46945113      -3.87821884
H        5.83487174       2.01342827      -3.76022396
C        4.85839863       0.39408150      -4.85314344
S        6.24844266      -0.09400396      -5.73667547
C        5.32761636      -0.96308300      -6.91980782
N        5.87827175      -1.40366136      -7.99612425
C        5.16547015      -2.05577718      -9.01527094
C        4.00088001      -1.53540273      -9.59093322
C        3.38077383      -2.18550966     -10.66266835
C        3.94915889      -3.34162442     -11.19175567
Br       3.13987655      -4.19373181     -12.67155947
C        5.12464099      -3.85742000     -10.65216377
C        5.72607622      -3.21277045      -9.56609673
N        4.04822338      -1.07310612      -6.52244063
C        3.71721434      -0.38565330      -5.40720806
O        2.61141316      -0.37723427      -4.90035184
C        3.41013662       3.39386445      -3.36418960
O        4.21493445       4.20282915      -4.12956225
H       -0.61420965       6.77690500      -1.60134414
H        1.10014801       7.22201587      -1.43347831
H        0.53417772       5.68757025      -0.79731266
H        0.61898607       6.51218031      -3.74498353
H       -0.01586718       4.96612662      -3.21868485
H        0.56949643       3.52335141      -1.48897391
H        3.16306817       0.19500778      -2.24865582
H        3.58072536      -0.59945300      -9.23312059
H        2.47447520      -1.76663362     -11.09274762
H        5.59189328      -4.74188281     -11.07737017
H        6.66002205      -3.60011167      -9.16423283
H        3.35559431      -1.60801557      -7.01875941
H        3.80986246       5.09082426      -4.07845625
C       -4.50962212       0.84077942      -4.75795569
C       -5.13666681      -0.30394436      -3.98156914
O       -4.50284039      -1.54478121      -4.30492773
C       -3.54839332      -2.00058536      -3.43084236
C       -2.75179020      -1.19959204      -2.61595342
C       -1.79284096      -1.79284096      -1.79284096
C       -1.62757587      -3.17760328      -1.76226000
C       -2.43360516      -3.99484296      -2.55868638
C       -2.29089074      -5.44773225      -2.51143427
H       -2.18897353      -5.95141435      -3.46813609
C       -2.51110710      -6.26386924      -1.33064723
S       -2.51495872      -7.98050501      -1.39565044
C       -3.28464443      -8.14763707       0.14794032
N       -3.73062009      -9.28686618       0.54675163
C       -4.41891724      -9.46395038       1.75790371
C       -5.51450823      -8.68124035       2.13933808
C       -6.21619530      -8.95857572       3.31683850
C       -5.84839308     -10.05031302       4.09941596
Br      -6.82634410     -10.45598684       5.66462674
C       -4.78028617     -10.85912154       3.72002295
C       -4.07029377     -10.56122451       2.55211578
N       -3.31631948      -6.96231599       0.78107758
C       -2.89986621      -5.89843553       0.05953265
O       -2.85238865      -4.75552520       0.47338312
C       -3.36527113      -3.39115383      -3.41176571
O       -4.14108715      -4.17394459      -4.23229411
H       -5.01666026       1.78281727      -4.53019651
H       -4.57679021       0.65598895      -5.83484094
H       -3.44701176       0.95330504      -4.52535392
H       -6.18343946      -0.40073854      -4.29197190
H       -5.15615579      -0.11029114      -2.90249735
H       -2.84677611      -0.12032535      -2.61472030
H       -0.88233705      -3.61937871      -1.10501602
H       -5.85540361      -7.86603549       1.50704615
H       -7.06194289      -8.33567253       3.59702623
H       -4.50483794     -11.73069209       4.30814939
H       -3.25468302     -11.21084679       2.24138660
H       -3.64643182      -6.84396562       1.72405930
H       -4.69453218      -3.54676839      -4.73784240
C       -4.61143325      -0.84349190       4.65885703
C       -5.20309979       0.32655775       3.89252278
O       -4.55292498       1.54937222       4.25025213
C       -3.57434119       2.00324186       3.40223799
C       -2.77747944       1.20258226       2.58727396
C       -1.79284096       1.79284096       1.79284096
C       -1.60190474       3.17463473       1.79089968
C       -2.40755263       3.99204512       2.58753675
C       -2.23761313       5.44266318       2.56978094
H       -2.14428325       5.92690674       3.53733398
C       -2.42107464       6.28405560       1.40049333
S       -2.39493708       7.99900415       1.49717294
C       -3.13276128       8.20837053      -0.05679063
N       -3.55050698       9.36271602      -0.44248837
C       -4.21294132       9.57448469      -1.66246210
C       -5.31532657       8.81924362      -2.07815970
C       -5.98994755       9.13086609      -3.26288113
C       -5.58794999      10.22964882      -4.01830867
Br      -6.52923511      10.68172374      -5.59325464
C       -4.51252759      11.01152531      -3.60466814
C       -3.82980015      10.67936870      -2.42976635
N       -3.17424576       7.03553828      -0.71222615
C       -2.79061600       5.95119845      -0.00304535
O       -2.75626203       4.81531349      -0.43704479
C       -3.36566129       3.39030033       3.41222906
O       -4.14217802       4.17227633       4.23287150
H       -5.13120249      -1.77169124       4.40452824
H       -4.69515011      -0.67708730       5.73757938
H       -3.54692033      -0.97141814       4.44355845
H       -6.25350597       0.43705113       4.18559281
H       -5.20613142       0.15293680       2.80987607
H       -2.89202059       0.12545882       2.56434235
H       -0.83672662       3.61441204       1.15559312
H       -5.68262062       7.99913304      -1.46736071
H       -6.84154348       8.52891487      -3.56986915
H       -4.21045186      11.88839132      -4.17146254
H       -3.00841066      11.30803281      -2.09230026
H       -3.48894653       6.94047055      -1.66307894
H       -4.71618826       3.54636753       4.71658718
C       -0.80295374      -4.14431938       5.08543274
C        0.47925400      -3.44360834       5.49931797
O        1.59999304      -3.96963039       4.78292590
C        2.03090680      -3.25556301       3.69335122
C        1.23183642      -2.44038909       2.89511015
C        1.79284096      -1.79284096       1.79284096
C        3.14550250      -1.93759018       1.48434647
C        3.96359228      -2.73540963       2.28813260
C        5.38785540      -2.86915339       1.99304848
H        5.77605963      -3.88246736       1.94999699
C        6.34030319      -1.77294374       1.99237664
S        8.03043861      -2.03272345       1.82795211
C        8.44139200      -0.44769683       2.39525234
N        9.65886820      -0.13799874       2.67386770
C       10.03635043       1.10905444       3.19766792
C        9.42697248       1.68742357       4.31686158
C        9.90160605       2.89115011       4.84747658
C       11.01853400       3.50223179       4.28298793
Br      11.69119373       5.10270566       5.02921613
C       11.65704792       2.92571322       3.18805006
C       11.16212933       1.73296366       2.65023682
N        7.33847960       0.31649250       2.47557079
C        6.16580838      -0.31770445       2.25525627
O        5.07333297       0.21684992       2.27804769
C        3.38609049      -3.41417048       3.36792970
O        4.16422375      -4.23496654       4.14813557
H       -1.65267896      -3.75984540       5.65687306
H       -0.72287005      -5.22269647       5.25581577
H       -1.01163671      -4.01035165       4.02034569
H        0.66262295      -3.65428247       6.55924449
H        0.40052719      -2.35319199       5.41522511
H        0.17629343      -2.30626256       3.09926577
H        3.56424491      -1.41479344       0.62769342
H        8.59561506       1.19053429       4.80931219
H        9.41126899       3.32566412       5.71498432
H       12.54705595       3.37922204       2.75954673
H       11.67918448       1.26830309       1.81326182
H        7.35569550       1.29561575       2.70625839
H        3.55590207      -4.60632337       4.81691752
C       -0.00445707       0.01189536      -1.78238275
H       -0.66409135       0.67374010      -2.43557963
H        0.65740317      -0.63156657      -2.45157240
C       -0.90989263      -0.90692880      -0.91072765
C        0.90977584       0.90977584      -0.90977584
C       -0.00465871       1.77757030       0.00794375
H       -0.66225468       2.44313916      -0.64384735
H        0.64322798       2.43503045       0.67728295
C       -1.78241447       0.00034974      -0.00472694
H       -2.45427497      -0.65498947       0.64260836
H       -2.43311707       0.67328779      -0.65473579
C       -0.91132561       0.90220522       0.91563759
C       -0.01476271      -0.02253852       1.78660255
H       -0.67934791      -0.69751639       2.42135241
H        0.63392994       0.61504881       2.47327442
C        0.01484550      -1.77751727      -0.01636693
H        0.67870853      -2.42144646      -0.68295456
H       -0.62264859      -2.45592969       0.64226336
C        1.78714474       0.01002794       0.00389507
H        2.44202412       0.67113390       0.66197326
H        2.45385902      -0.65136977      -0.64189061
C        0.91606151      -0.90478549       0.90901405
