157
Properties=species:S:1:pos:R:3 pbc="F F F"
C        0.00000000       0.00000000       0.00000000
C       -0.49987335       5.48378239      -0.71317727
C       -0.20016432       4.83800227      -2.05463028
O        1.15047157       4.36956343      -2.10280226
C        1.35312239       3.03379777      -1.86318881
C        0.54345098       2.22412306      -1.07004955
C        0.88293694       0.88293694      -0.88293694
C        2.01378590       0.33520845      -1.48873273
C        2.82363776       1.13010963      -2.30367505
C        3.99248327       0.55954711      -2.96831481
H        4.92496771       1.10352425      -2.85031994
C        3.94849460      -0.51582252      -3.94323942
S        5.33853863      -1.00390798      -4.82677144
C        4.41771233      -1.87298702      -6.00990380
N        4.96836772      -2.31356539      -7.08622023
C        4.25556612      -2.96568121      -8.10536692
C        3.09097599      -2.44530676      -8.68102919
C        2.47086981      -3.09541369      -9.75276433
C        3.03925487      -4.25152845     -10.28185164
Br       2.22997252      -5.10363584     -11.76165545
C        4.21473696      -4.76732402      -9.74225974
C        4.81617220      -4.12267448      -8.65619270
N        3.13831935      -1.98301015      -5.61253661
C        2.80731031      -1.29555733      -4.49730404
O        1.70150914      -1.28713829      -3.99044781
C        2.50023260       2.48396042      -2.45428558
O        3.30503043       3.29292513      -3.21965823
H       -1.52411367       5.86700098      -0.69144012
H        0.19024399       6.31211185      -0.52357429
H       -0.37572630       4.77766623       0.11259136
H       -0.29091796       5.60227629      -2.83507951
H       -0.92577121       4.05622260      -2.30878083
H       -0.34040759       2.61344739      -0.57906989
H        2.25316415      -0.71489624      -1.33875179
H        2.67082134      -1.50935703      -8.32321657
H        1.56457117      -2.67653765     -10.18284360
H        4.68198926      -5.65178683     -10.16746614
H        5.75011803      -4.51001570      -8.25432881
H        2.44569028      -2.51791960      -6.10885539
H        2.89995844       4.18092024      -3.16855222
C        0.62724913      -5.44671512      -0.87762031
C        0.27333036      -4.77362638      -2.19217222
O       -1.09022830      -4.34156237      -2.19104658
C       -1.32202492      -3.01883278      -1.90925126
C       -0.51281043      -2.20871353      -1.11609962
C       -0.88293694      -0.88293694      -0.88293694
C       -2.04441283      -0.35057486      -1.44273938
C       -2.85480736      -1.14535028      -2.25726479
C       -4.05649157      -0.58963883      -2.87421479
H       -4.97039500      -1.16215141      -2.74626549
C       -4.06839132       0.51236166      -3.81988184
S       -5.49494042       0.98543087      -4.65189255
C       -4.63086090       1.91112217      -5.83489037
N       -5.22269525       2.36509808      -6.88342539
C       -4.55612041       3.06382973      -7.90296116
C       -3.39431092       2.59150219      -8.52388968
C       -2.82176172       3.28707907      -9.59353780
C       -3.43543130       4.44085485     -10.07500161
Br      -2.69055430       5.35448210     -11.55191993
C       -4.60899824       4.90927586      -9.48995030
C       -5.16264110       4.21928286      -8.40633218
N       -3.34439732       2.04573178      -5.46918027
C       -2.96433238       1.33794911      -4.38267376
O       -1.84512122       1.34646374      -3.90616118
C       -2.49940050      -2.48520800      -2.45387010
O       -3.30299686      -3.29522972      -3.21938721
H        1.66163295      -5.80193064      -0.89402973
H       -0.03484268      -6.29859678      -0.69249066
H        0.50702577      -4.76675880      -0.02961553
H        0.36300126      -5.51383867      -2.99560043
H        0.97035339      -3.96554358      -2.44404203
H        0.39442668      -2.58652695      -0.66000941
H       -2.30770517       0.68810144      -1.25741597
H       -2.93941439       1.65823715      -8.20350364
H       -1.91675803       2.90512254     -10.05924163
H       -5.11143523       5.79160298      -9.87783632
H       -6.09520315       4.56972274      -7.96895073
H       -2.68038123       2.61272837      -5.96897321
H       -2.87293639      -4.17274547      -3.20374904
C        1.67720090       4.33030210       3.04398511
C        0.67706445       3.51981921       3.84971347
O       -0.64209492       3.66469708       3.31604525
C       -1.09306342       2.66217270       2.49487284
C       -0.29028764       1.84784787       1.69948807
C       -0.88293694       0.88293694       0.88293694
C       -2.26700452       0.71076458       0.85995798
C       -3.08318503       1.50626325       1.66797416
C       -4.53105544       1.31364975       1.67564000
H       -5.13472830       2.20586866       1.53821493
C       -5.20213443       0.09165900       2.08211807
S       -6.90926447       0.00100191       2.25113572
C       -6.85133328      -1.46695406       3.17024990
N       -7.90005287      -1.92084933       3.76181902
C       -7.89248574      -3.06840732       4.57117342
C       -6.97967672      -3.26629675       5.61331845
C       -7.07358898      -4.38825345       6.44288492
C       -8.11069417      -5.29922349       6.25810739
Br      -8.26811758      -6.78944736       7.40932192
C       -9.04667165      -5.10298102       5.24598206
C       -8.93218100      -3.98949595       4.40700537
N       -5.61083869      -1.98382948       3.14083661
C       -4.66627309      -1.21402108       2.55680502
O       -3.49682582      -1.52533627       2.43332910
C       -2.48564792       2.49909436       2.45373632
O       -3.27283139       3.31858391       3.22619848
H        2.67927345       4.24045849       3.47314238
H        1.39284885       5.38733921       3.03143977
H        1.71565773       4.00410433       2.00090196
H        0.64500757       3.92295546       4.86848995
H        0.97826377       2.47005468       3.94744130
H        0.78787334       1.95382704       1.68615598
H       -2.70673834      -0.05477244       0.22505380
H       -6.20404373      -2.53196681       5.81260396
H       -6.35184683      -4.52519043       7.24422072
H       -9.87663202      -5.79212924       5.11316579
H       -9.68071369      -3.82171170       3.63542915
H       -5.36969079      -2.87460450       3.54153979
H       -2.65163492       3.93148108       3.66631490
C       -1.39826359      -4.90841525       2.18693466
C       -0.63902330      -4.10398230       3.22750923
O        0.74432855      -3.99937966       2.87912905
C        1.14438737      -2.83792454       2.26779705
C        0.33897325      -2.02490493       1.47374540
C        0.88293694      -0.88293694       0.88293694
C        2.21823772      -0.53399839       1.08549097
C        3.03242532      -1.32869391       1.89630320
C        4.42339868      -0.95605712       2.14088939
H        5.16402078      -1.73400719       1.98078393
C        4.85044211       0.26861000       2.79407940
S        6.49008877       0.55065439       3.22196771
C        6.10050867       1.84829722       4.30241765
N        6.98707277       2.34058305       5.09453285
C        6.70792542       3.34648369       6.03381011
C        5.65047445       3.27113222       6.94735618
C        5.47204530       4.26190863       7.91808377
C        6.37924386       5.31498816       8.00532236
Br       6.16800896       6.62790320       9.34788637
C        7.45534697       5.39050722       7.12483294
C        7.61354877       4.40679471       6.14293637
N        4.81160738       2.20126317       4.15750161
C        4.07260699       1.41128717       3.34773721
O        2.89557015       1.58549220       3.09474071
C        2.49169487      -2.49415445       2.45262928
O        3.28549858      -3.31086661       3.22124859
H       -2.44916676      -5.01118633       2.47230785
H       -0.96261774      -5.90712486       2.08142300
H       -1.35070230      -4.44028128       1.19976958
H       -0.67846854      -4.64483526       4.18007111
H       -1.10100132      -3.12705775       3.41317578
H       -0.70134201      -2.26453544       1.28891626
H        2.61827701       0.36622592       0.62496861
H        4.97197999       2.42256821       6.93526910
H        4.64169742       4.18649869       8.61567840
H        8.18527670       6.19193299       7.20432486
H        8.47090352       4.45099914       5.47452675
H        4.39318993       2.98543804       4.62887419
H        2.70992748      -4.05594510       3.48355832
