125
Properties=species:S:1:pos:R:3 pbc="F F F"
C        0.00000000       0.00000000       0.00000000
C        0.87173407       0.87173407      -0.87173407
C        1.45841988       2.03296253      -0.43713279
C        2.21561577       2.64622909      -1.48005018
C        2.16273195       1.92733176      -2.66018506
C        2.76567591       2.23265767      -3.93371574
N        3.48269851       3.30272210      -4.07434119
C        4.00623111       3.55252452      -5.35045267
C        3.56388155       4.67343178      -6.05617064
C        4.08705359       4.97192160      -7.31790522
C        5.07890689       4.16431742      -7.87975426
C        5.51994722       3.04178726      -7.17560938
C        4.99696598       2.74279877      -5.91286533
N        5.60521881       4.43084084      -9.15024958
C        6.36656707       5.47477138      -9.25409020
C        6.95887625       5.82197310     -10.52170103
C        6.85270220       5.17300651     -11.73791503
C        7.60193433       5.82087458     -12.76537723
C        8.23947207       6.93496583     -12.28190286
Br       9.32331783       8.04452003     -13.33263297
S        7.95283576       7.21121996     -10.63473581
S        1.21783363       0.51004518      -2.49156041
H        1.35588315       2.43362269       0.56392773
H        2.76520165       3.57571100      -1.37825295
H        2.58681875       1.53692880      -4.77671843
H        2.80512441       5.31764581      -5.61918839
H        3.71614976       5.83649322      -7.86100375
H        6.27929279       2.39823538      -7.61239487
H        5.36961616       1.87967841      -5.36941533
H        6.58500013       6.12104988      -8.38200638
H        6.26618503       4.27106822     -11.87731349
H        7.66152934       5.47758827     -13.79082714
C       -0.87173407      -0.87173407      -0.87173407
C       -0.90828350      -0.78034478      -2.23988691
C       -1.82764941      -1.72208964      -2.79215599
C       -2.45254040      -2.47938309      -1.81832528
C       -3.45584479      -3.50314207      -1.97306247
N       -3.87652370      -3.82864661      -3.15459150
C       -4.87899224      -4.80596569      -3.22425037
C       -6.14075934      -4.44854130      -3.70418332
C       -7.15554689      -5.40357313      -3.81776039
C       -6.91252829      -6.73581814      -3.47463213
C       -5.65164732      -7.09344602      -2.99225053
C       -4.63573333      -6.13822650      -2.87867025
N       -7.91778434      -7.70751597      -3.56100891
C       -8.28204412      -8.05908705      -4.75429749
C       -9.30436376      -9.05842849      -4.93975814
C      -10.00937143      -9.76857287      -3.98567943
C      -10.93558595     -10.68562158      -4.56697861
C      -10.89353935     -10.62611754      -5.93668387
Br     -11.96302557     -11.68580609      -7.05163916
S       -9.77450666      -9.49825523      -6.52602965
S       -1.90826095      -2.06082551      -0.25035277
H       -0.32061719      -0.08194066      -2.82302025
H       -2.03296468      -1.83507152      -3.85112940
H       -3.85593365      -3.98495936      -1.05957297
H       -6.33379544      -3.41776655      -3.99039662
H       -8.13687189      -5.10306054      -4.17371429
H       -5.45859583      -8.12440072      -2.70692649
H       -3.65429963      -6.43954492      -2.52486535
H       -7.82181303      -7.61039947      -5.65584389
H       -9.85956646      -9.63552095      -2.91947933
H      -11.58449604     -11.34341718      -4.00203152
C       -0.87173407       0.87173407       0.87173407
C       -1.99493980       0.41821293       1.51536246
C       -2.61882219       1.46583150       2.25724135
C       -1.94579482       2.66783513       2.13661881
C       -2.27598430       3.95098425       2.70508079
N       -3.32455229       4.07991807       3.45529144
C       -3.60218074       5.36470111       3.94232645
C       -4.76298687       6.01388535       3.51661175
C       -5.08872789       7.28258214       4.00557038
C       -4.26774251       7.90835918       4.94687687
C       -3.10541910       7.26075538       5.37116938
C       -2.77913648       5.99107495       4.88241866
N       -4.56176751       9.18704588       5.43749583
C       -5.58133131       9.28178078       6.23231656
C       -5.95350112      10.55715462       6.79189465
C       -5.35350837      11.79078265       6.61933271
C       -6.01166400      12.82145658       7.35506556
C       -7.08421811      12.32264178       8.04948088
Br      -8.19253029      13.37250910       9.13543144
S       -7.31008009      10.65740197       7.83130948
S       -0.55745500       2.51484803       1.14713620
H       -2.36215067      -0.59941279       1.46284022
H       -3.52403567       1.35149340       2.84363654
H       -1.61822482       4.81087496       2.47136620
H       -5.41714150       5.52707813       2.79773898
H       -5.98507559       7.78099227       3.64757887
H       -2.45189786       7.74736426       6.09066092
H       -1.88416385       5.49232644       5.24221961
H       -6.18724863       8.39603270       6.50477506
H       -4.47847641      11.94035531       5.99573502
H       -5.70415582      13.85985202       7.36593690
C        0.87173407      -0.87173407       0.87173407
C        0.59132421      -2.18479512       1.15239587
C        1.58550178      -2.75006747       2.00632579
C        2.57026510      -1.83878741       2.34119626
C        3.71601033      -2.01828274       3.19775626
N        3.93406634      -3.16459318       3.76110227
C        5.04667724      -3.25339628       4.60913478
C        4.84274713      -3.47857133       5.97216551
C        5.92937743      -3.60463564       6.84286735
C        7.23654815      -3.53095114       6.35547928
C        7.44118028      -3.30329544       4.99286814
C        6.35417659      -3.17735881       4.12109468
N        8.34173778      -3.63469773       7.20987372
C        8.57394831      -4.80503437       7.71644597
C        9.69467561      -5.00759959       8.60027518
C       10.64419746      -4.09602073       9.02340554
C       11.61126827      -4.68442129       9.89249658
C       11.34840122      -6.01574498      10.09219456
Br      12.40177168      -7.12789914      11.17080001
S        9.97413828      -6.56072831       9.26392495
S        2.29633366      -0.31780503       1.60530053
H       -0.27331840      -2.71978625       0.77911025
H        1.57756604      -3.77197499       2.36962457
H        4.38540560      -1.15160232       3.36345807
H        3.82922887      -3.55506925       6.35766050
H        5.75130724      -3.75907105       7.90326843
H        8.45474299      -3.22769718       4.60748286
H        6.53270373      -3.02517072       3.06083544
H        7.92838436      -5.67436742       7.48530461
H       10.64301634      -3.05565346       8.71589694
H       12.44407381      -4.15143771      10.33443322
