193
Properties=species:S:1:pos:R:3 pbc="F F F"
C        0.00000000       0.00000000       0.00000000
C        0.88194393       0.88194393      -0.88194393
C        2.25358136       0.95079448      -0.63938527
C        3.06209796       1.74559168      -1.45576038
C        2.49284844       2.46714467      -2.51002302
C        1.11473340       2.40714344      -2.74158562
C        0.30802942       1.60846324      -1.92608206
C        3.32919899       3.30860115      -3.39080897
N        4.61940799       3.34271412      -3.28091540
C        5.33560606       4.21020945      -4.12349331
C        5.03425538       5.57063914      -4.19343053
C        5.81677902       6.42402015      -4.96397765
C        6.93267738       5.92324514      -5.65025270
C        7.76755618       6.77530279      -6.37301529
C        8.90906583       6.27373426      -6.99902042
C        9.79412535       7.13059137      -7.66773653
C       10.94599341       6.61938930      -8.25786702
C       11.20510251       5.24813225      -8.22731345
N       12.37388196       4.69573416      -8.79086610
C       12.72530013       5.08906923      -9.97350718
C       13.95646850       4.61051422     -10.63481461
C       14.32786604       5.18502459     -11.85577195
C       15.48590988       4.74973156     -12.50522636
C       16.26287682       3.74262867     -11.93265680
Br      17.82114304       3.14515688     -12.82072349
C       15.89829791       3.17236724     -10.71261183
C       14.74340507       3.60977644     -10.05858691
C       10.31104589       4.40981468      -7.54563457
C        9.16331899       4.89158637      -6.91549079
N        8.34274403       4.05913279      -6.23830928
C        7.26272941       4.55634623      -5.59752171
C        6.44451435       3.72568451      -4.83151887
H        2.70333093       0.38997614       0.17605489
H        4.13220703       1.79909845      -1.26643902
H        0.66044538       2.96823571      -3.55394987
H       -0.76151848       1.55529362      -2.11382515
H        2.79263193       3.91200406      -4.14678573
H        4.20561245       5.97799097      -3.62240983
H        5.57021879       7.48195920      -4.99853527
H        7.54467328       7.83945024      -6.42193396
H        9.60855902       8.20033552      -7.71020115
H       11.64613143       7.30298246      -8.72859134
H       12.12137928       5.81386722     -10.55046135
H       13.72973771       5.97165339     -12.30829866
H       15.77194897       5.19828553     -13.45345543
H       16.50228514       2.38773335     -10.26334442
H       14.45998666       3.16578871      -9.10675956
H       10.52753050       3.34675095      -7.48721917
H        6.69661976       2.67089101      -4.75724039
C       -0.88194393      -0.88194393      -0.88194393
C       -2.01272764      -1.49172775      -0.33930571
C       -2.82751808      -2.28590078      -1.15003116
C       -2.50547154      -2.46535193      -2.49919267
C       -1.36271145      -1.86403130      -3.03671972
C       -0.55084835      -1.06678501      -2.22494136
C       -3.35627309      -3.29499812      -3.37733790
N       -4.46963750      -3.81092900      -2.96247100
C       -5.19215721      -4.63113570      -3.84601592
C       -4.59985029      -5.73072010      -4.46775465
C       -5.36011168      -6.58004976      -5.26461538
C       -6.73482067      -6.35043570      -5.42091885
C       -7.52559374      -7.22928137      -6.16099915
C       -8.90218912      -7.02335598      -6.25627540
C       -9.71774089      -7.93804885      -6.93666352
C      -11.09339171      -7.73624819      -6.99360982
C      -11.66439970      -6.60193473      -6.41421378
N      -13.05632333      -6.37581611      -6.42834278
C      -13.69169482      -6.55359217      -7.54258955
C      -15.15562962      -6.39117671      -7.65499100
C      -15.77649125      -6.72932087      -8.86285047
C      -17.15942368      -6.58293079      -8.99851332
C      -17.91171984      -6.09766714      -7.92877531
Br     -19.78060056      -5.88651923      -8.11990364
C      -17.29623689      -5.76553112      -6.72150896
C      -15.91398185      -5.91610441      -6.58168216
C      -10.83144335      -5.70403185      -5.73101993
C       -9.45282041      -5.89099194      -5.62658380
N       -8.68608911      -5.02326641      -4.93083059
C       -7.36069776      -5.25082752      -4.80507207
C       -6.56415326      -4.40813603      -4.02942843
H       -2.27101789      -1.35383127       0.70759697
H       -3.70974351      -2.76146931      -0.72653168
H       -1.09917744      -2.00134784      -4.08210568
H        0.33151723      -0.59212007      -2.64699746
H       -2.98795654      -3.45556342      -4.40790176
H       -3.54823188      -5.94877369      -4.30900768
H       -4.88148444      -7.43585512      -5.73337371
H       -7.07178378      -8.09541365      -6.63886005
H       -9.29379943      -8.82408457      -7.40121168
H      -11.71642519      -8.47983302      -7.48144701
H      -13.16845103      -6.84504324      -8.47221359
H      -15.19863663      -7.11010218      -9.70095095
H      -17.63884016      -6.84682845      -9.93802131
H      -17.88001155      -5.38779273      -5.88555862
H      -15.43448714      -5.65815947      -5.63988832
H      -11.27585432      -4.83902181      -5.24662449
H       -7.03289213      -3.56722667      -3.52463235
C       -0.88194393       0.88194393       0.88194393
C       -0.37860180       1.38297360       2.08218570
C       -1.18033259       2.20203986       2.88107757
C       -2.48141301       2.51455814       2.47404499
C       -2.98807982       1.99864496       1.27673768
C       -2.18315302       1.18243659       0.47698510
C       -3.34497999       3.38455046       3.29907865
N       -2.90886330       3.95929137       4.37488284
C       -3.81096432       4.72814301       5.13020150
C       -5.02137742       4.19853773       5.57840990
C       -5.85386421       4.94927022       6.40164238
C       -5.46336667       6.23295895       6.80984960
C       -6.25342118       6.97349817       7.68895491
C       -5.82281572       8.22298020       8.13602458
C       -6.57271424       8.94529911       9.07443990
C       -6.11250534      10.17475477       9.53598961
C       -4.92732470      10.71698452       9.03623899
N       -4.41526103      11.94713395       9.49808725
C       -5.23328378      12.94472675       9.60986601
C       -4.81113278      14.26171547      10.12894908
C       -5.78656220      15.24312297      10.33897742
C       -5.41555300      16.49897652      10.82633828
C       -4.07374548      16.76668064      11.09773617
Br      -3.57258358      18.47148516      11.74295468
C       -3.10001710      15.78821507      10.89504480
C       -3.46933085      14.52971304      10.41272453
C       -4.18820483       9.97386008       8.10443022
C       -4.60290480       8.72408160       7.64340975
N       -3.84766474       8.02098927       6.77153210
C       -4.24776320       6.79321139       6.37562276
C       -3.44689553       6.02032883       5.53449336
H        0.63287483       1.14703351       2.40309351
H       -0.78743131       2.59292613       3.81738706
H       -3.99959788       2.22969284       0.95334023
H       -2.57532239       0.79048488      -0.45820698
H       -4.38654727       3.51466319       2.95021127
H       -5.30748802       3.18542277       5.31310247
H       -6.78864754       4.51532499       6.74674074
H       -7.19316774       6.56133570       8.05155404
H       -7.50179621       8.54571119       9.47158828
H       -6.67991548      10.69811694      10.29967280
H       -6.29900282      12.85952718       9.32717785
H       -6.83463610      15.04279095      10.13226271
H       -6.17573554      17.25916752      10.98878687
H       -2.05338173      15.99355944      11.10642173
H       -2.71007007      13.76659752      10.25586734
H       -3.24637967      10.37481269       7.74030826
H       -2.49215466       6.42466721       5.20792929
C        0.88194393      -0.88194393       0.88194393
C        0.41548122      -1.30045136       2.12782852
C        1.21625586      -2.11961084       2.92758332
C        2.47948903      -2.51482768       2.47569942
C        2.95011414      -2.08149755       1.23185077
C        2.14597391      -1.26507194       0.43152887
C        3.34085017      -3.38661867       3.30114028
N        2.93184008      -3.88784312       4.42335431
C        3.83296210      -4.66391381       5.17243293
C        5.08762122      -4.17423770       5.53646613
C        5.92349877      -4.92559627       6.35568177
C        5.49365668      -6.16779131       6.84472723
C        6.29044052      -6.90425462       7.72117912
C        5.82411365      -8.10851236       8.24919450
C        6.58462238      -8.82202271       9.18580816
C        6.09041889     -10.00415691       9.72867393
C        4.85779321     -10.51010038       9.31265462
N        4.31183787     -11.69035122       9.85829313
C        5.08652268     -12.72076597       9.98058789
C        4.62901050     -13.98940129      10.58338555
C        5.56635015     -15.00681959      10.79549285
C        5.16117102     -16.21848150      11.36121527
C        3.82329672     -16.40650698      11.70835859
Br       3.27493532     -18.05221471      12.45987339
C        2.88787809     -15.39176246      11.50363643
C        3.29173936     -14.17713724      10.94289182
C        4.10934360      -9.77605446       8.38109708
C        4.55912687      -8.57137190       7.83989738
N        3.79567088      -7.87364777       6.97086746
C        4.23306747      -6.68712872       6.49640117
C        3.42889384      -5.91607592       5.65674796
H       -0.56668160      -0.99999334       2.48394044
H        0.85212327      -2.44610933       3.89951190
H        3.93242557      -2.37719398       0.87301141
H        2.50948163      -0.93742174      -0.53930308
H        4.35663332      -3.58429827       2.91049014
H        5.40764349      -3.19010370       5.20826607
H        6.89357476      -4.52259506       6.63454345
H        7.26530742      -6.52240688       8.01834318
H        7.54996431      -8.45056732       9.51856405
H        6.66959748     -10.51838385      10.48972390
H        6.13980435     -12.70171323       9.64419027
H        6.61119953     -14.86845528      10.53003495
H        5.89182700     -17.00680571      11.52505722
H        1.84445828     -15.53497905      11.77392557
H        2.56241684     -13.38567769      10.78444040
H        3.13285533     -10.14668746       8.08195783
H        2.44121584      -6.28768108       5.39585424
