182
Properties=species:S:1:pos:R:3 pbc="F F F"
C       11.56434418      -0.34520857      -4.97804794
O       12.27415790       0.88331642      -5.09745152
C       11.71012937       1.97471985      -4.48490742
C       10.33427549       2.12642514      -4.28186862
C        9.83145986       3.29653339      -3.69584653
C        8.36835972       3.43625882      -3.53351224
N        7.57938488       2.41049969      -3.49910262
N        6.26117795       2.71886225      -3.34072806
C        5.31943399       1.73572582      -3.09752179
O        5.55614302       0.53432270      -3.01786356
C        3.92350313       2.22434741      -2.86178278
C        3.09548010       1.40008645      -2.08038096
C        1.79103557       1.79103557      -1.79103557
C        1.29066227       2.99253790      -2.28444640
C        2.10180113       3.81468140      -3.07116590
C        3.41803718       3.43768930      -3.37123734
O        4.26214162       4.24911853      -4.08865888
C        3.65693871       4.97710021      -5.15626814
C       10.71124615       4.30896965      -3.29964732
Br      10.14051053       5.90949779      -2.44479518
C       12.08732838       4.15744273      -3.49974730
C       12.59438140       3.00082751      -4.10005633
O       13.92577310       2.77422912      -4.34227184
C       14.85468490       3.76363198      -3.92276680
H       12.22608910      -1.14388700      -5.32632350
H       10.67671159      -0.34984012      -5.61623109
H       11.30542296      -0.55541233      -3.93471254
H        9.63430032       1.35785596      -4.60283953
H        7.96461600       4.45799261      -3.42890421
H        5.95813245       3.68716725      -3.39805425
H        3.48391744       0.46308511      -1.68540258
H        0.27548145       3.30562034      -2.05159037
H        1.68790963       4.75703106      -3.41435566
H        3.05729484       5.81055627      -4.77633176
H        3.06293461       4.32289596      -5.80034824
H        4.46277723       5.40539764      -5.76133244
H       12.74991218       4.95497481      -3.17796135
H       15.85799957       3.41289337      -4.18179167
H       14.82087280       3.90111527      -2.83700618
H       14.68723394       4.70955003      -4.44751502
C        0.41129371     -11.50925545      -5.09922181
O       -0.18393421     -11.69115120      -6.37984042
C       -0.58544506     -10.55202654      -7.03228503
C       -0.98350927      -9.38153805      -6.37752192
C       -1.43165005      -8.27688860      -7.11530114
C       -1.88075387      -7.07168703      -6.38568988
N       -1.49583312      -6.81691661      -5.17623746
N       -2.00198206      -5.66358489      -4.65520132
C       -1.54177830      -5.15775886      -3.45314444
O       -0.67971547      -5.67734278      -2.75127102
C       -2.12641673      -3.84186788      -3.04134872
C       -1.33447645      -3.04078745      -2.20068362
C       -1.79103557      -1.79103557      -1.79103557
C       -3.04012721      -1.33033283      -2.19718652
C       -3.84021015      -2.12308195      -3.02435633
C       -3.39597895      -3.38326734      -3.44771753
O       -4.12846366      -4.16156342      -4.30989194
C       -5.54226341      -4.12806012      -4.11998352
C       -1.46631112      -8.34159912      -8.51195287
Br      -2.00208728      -6.88328368      -9.60943254
C       -1.06614830      -9.51041786      -9.16795225
C       -0.63512770     -10.62232831      -8.43780922
O       -0.23485844     -11.80894756      -8.99846807
C       -0.22249897     -11.90278786     -10.41579685
H        0.85970646     -12.46298268      -4.80524936
H       -0.34133867     -11.25287991      -4.34888397
H        1.20960263     -10.76008834      -5.13423746
H       -0.98243336      -9.32134714      -5.29121531
H       -2.55564835      -6.37881722      -6.91704724
H       -2.72881061      -5.15924403      -5.15529931
H       -0.35356192      -3.39261865      -1.88622456
H       -3.39521462      -0.35016746      -1.88731008
H       -4.79519375      -1.71972214      -3.34438045
H       -5.96826619      -3.18876221      -4.48715446
H       -5.80969593      -4.30233466      -3.07414821
H       -5.97427887      -4.93699799      -4.71823045
H       -1.09646877      -9.53345221     -10.25292737
H        0.13246282     -12.90258207     -10.68256535
H        0.47061080     -11.17659137     -10.85301366
H       -1.23005411     -11.78671772     -10.82752717
C      -12.26608780       1.49093235       2.44016340
O      -12.73498380       2.80750808       2.71243395
C      -11.84225970       3.82832327       2.49917367
C      -10.45505463       3.68169098       2.60582363
C       -9.61187498       4.78701123       2.42495357
C       -8.15368828       4.60026100       2.58418151
N       -7.59099553       3.44140679       2.45658487
N       -6.23936109       3.44914073       2.63226643
C       -5.47304173       2.33421176       2.34542811
O       -5.90933106       1.26279591       1.93620230
C       -3.99435847       2.50968731       2.50558755
C       -3.17679382       1.67631552       1.72283817
C       -1.79103557       1.79103557       1.79103557
C       -1.20299611       2.72007848       2.64457198
C       -2.00617194       3.54636797       3.43510852
C       -3.40305148       3.44570452       3.37820782
O       -4.22303787       4.28297383       4.09390732
C       -3.76360235       4.62623349       5.40047122
C      -10.16029667       6.03743427       2.12213218
Br      -9.10557612       7.58760777       1.80161960
C      -11.54698023       6.18485394       2.01268424
C      -12.39503425       5.09065533       2.20957565
O      -13.76366064       5.14784368       2.13076975
C      -14.35766060       6.39258790       1.79083518
H      -13.13238111       0.82276275       2.45338173
H      -11.57519848       1.15145571       3.21644837
H      -11.80974740       1.42861548       1.44636029
H      -10.01302166       2.72089142       2.86108273
H       -7.54865232       5.49591752       2.80694297
H       -5.77922637       4.28707720       2.97705039
H       -3.63124147       0.95331767       1.04784599
H       -0.12100241       2.81923009       2.69245967
H       -1.51405605       4.27827162       4.06696867
H       -2.94216089       5.34845723       5.35356475
H       -3.47799859       3.73780568       5.97037454
H       -4.59360870       5.11120257       5.92469603
H      -11.94768345       7.16440917       1.77075573
H      -15.44184777       6.24973979       1.76109704
H      -14.03880223       6.72328371       0.79690829
H      -14.14294464       7.15220614       2.54914822
C       -0.84223563     -11.04497420       5.99444497
O       -0.16396192     -11.17980112       7.23908663
C        0.36808191     -10.03126803       7.77040670
C        0.79738552      -8.94549139       6.99969233
C        1.37994274      -7.82871247       7.61518457
C        1.85668444      -6.71777853       6.76366782
N        1.39831542      -6.52169976       5.56897202
N        1.94424948      -5.45174392       4.92477486
C        1.42968986      -4.99964076       3.72335098
O        0.48049782      -5.49989854       3.12793291
C        2.07387541      -3.76626695       3.16949096
C        1.27880783      -2.96874963       2.32839006
C        1.79103557      -1.79103557       1.79103557
C        3.09785475      -1.40071344       2.06907838
C        3.90057096      -2.19155169       2.89552578
C        3.40091531      -3.37961009       3.44643843
O        4.14017558      -4.14830134       4.31144211
C        5.53367133      -4.23852944       4.01810629
C        1.51826830      -7.79509406       9.00650076
Br       2.24140597      -6.30752654       9.94587099
C        1.08709429      -8.87895818       9.77846594
C        0.52163088     -10.00373714       9.16989721
O        0.08165993     -11.11216451       9.84844962
C        0.17273702     -11.10236799      11.26597867
H       -1.37970128     -11.97967423       5.80855263
H       -0.13366792     -10.90260141       5.17416906
H       -1.57933478     -10.23547200       6.02858595
H        0.71624486      -8.96384681       5.91490413
H        2.61900154      -6.04295653       7.18955475
H        2.74219181      -4.97067740       5.33048473
H        0.25362660      -3.26504311       2.11373542
H        3.49750545      -0.47599240       1.65919431
H        4.90411343      -1.84160381       3.11357910
H        6.05350099      -3.31116069       4.27952118
H        5.70577353      -4.50797685       2.97242843
H        5.95143831      -5.03336413       4.64470487
H        1.19988925      -8.82602379      10.85693531
H       -0.23155304     -12.04972391      11.63451374
H       -0.43015889     -10.29489434      11.69425879
H        1.21497557     -11.03556744      11.59375599
C       -0.00445707       0.01189536      -1.78238275
H       -0.66409135       0.67374010      -2.43557963
H        0.65740317      -0.63156657      -2.45157240
C       -0.90989263      -0.90692880      -0.91072765
C        0.90977584       0.90977584      -0.90977584
C       -0.00465871       1.77757030       0.00794375
H       -0.66225468       2.44313916      -0.64384735
H        0.64322798       2.43503045       0.67728295
C       -1.78241447       0.00034974      -0.00472694
H       -2.45427497      -0.65498947       0.64260836
H       -2.43311707       0.67328779      -0.65473579
C       -0.91132561       0.90220522       0.91563759
C       -0.01476271      -0.02253852       1.78660255
H       -0.67934791      -0.69751639       2.42135241
H        0.63392994       0.61504881       2.47327442
C        0.01484550      -1.77751727      -0.01636693
H        0.67870853      -2.42144646      -0.68295456
H       -0.62264859      -2.45592969       0.64226336
C        1.78714474       0.01002794       0.00389507
H        2.44202412       0.67113390       0.66197326
H        2.45385902      -0.65136977      -0.64189061
C        0.91606151      -0.90478549       0.90901405
