161
Properties=species:S:1:pos:R:3 pbc="F F F"
C        0.00000000       0.00000000       0.00000000
C       10.65444015      -1.25511260      -4.06814392
O       11.36425387      -0.02658761      -4.18754749
C       10.80022534       1.06481583      -3.57500339
C        9.42437147       1.21652111      -3.37196459
C        8.92155584       2.38662937      -2.78594250
C        7.45845569       2.52635480      -2.62360822
N        6.66948086       1.50059567      -2.58919859
N        5.35127393       1.80895822      -2.43082404
C        4.40952997       0.82582180      -2.18761776
O        4.64623900      -0.37558132      -2.10795953
C        3.01359911       1.31444339      -1.95187876
C        2.18557607       0.49018243      -1.17047694
C        0.88113155       0.88113155      -0.88113155
C        0.38075824       2.08263387      -1.37454237
C        1.19189710       2.90477738      -2.16126187
C        2.50813316       2.52778528      -2.46133332
O        3.35223759       3.33921451      -3.17875485
C        2.74703469       4.06719618      -4.24636411
C        9.80134213       3.39906563      -2.38974330
Br       9.23060651       4.99959376      -1.53489115
C       11.17742435       3.24753871      -2.58984328
C       11.68447737       2.09092349      -3.19015230
O       13.01586908       1.86432510      -3.43236782
C       13.94478088       2.85372796      -3.01286277
H       11.31618507      -2.05379103      -4.41641947
H        9.76680757      -1.25974415      -4.70632706
H       10.39551893      -1.46531635      -3.02480851
H        8.72439630       0.44795193      -3.69293550
H        7.05471197       3.54808859      -2.51900018
H        5.04822842       2.77726323      -2.48815022
H        2.57401342      -0.44681891      -0.77549855
H       -0.63442258       2.39571632      -1.14168635
H        0.77800560       3.84712703      -2.50445163
H        2.14739081       4.90065224      -3.86642773
H        2.15303058       3.41299193      -4.89044422
H        3.55287320       4.49549361      -4.85142842
H       11.84000816       4.04507079      -2.26805733
H       14.94809554       2.50298935      -3.27188764
H       13.91096877       2.99121124      -1.92710215
H       13.77732992       3.79964601      -3.53761100
C        1.07246916     -10.79041565      -3.74952498
O        0.51764793     -10.99866630      -5.04419539
C        0.18320810      -9.87108893      -5.75216373
C       -0.19401166      -8.66312743      -5.15571808
C       -0.57322055      -7.57149826      -5.94940891
C       -1.00281814      -6.32420389      -5.28139668
N       -0.65269394      -6.03822984      -4.06835134
N       -1.13364711      -4.84851422      -3.60889486
C       -0.69862777      -4.31483579      -2.40950596
O        0.11725470      -4.83855957      -1.65731233
C       -1.24788507      -2.96404737      -2.06798881
C       -0.45736773      -2.16114599      -1.22772172
C       -0.88113155      -0.88113155      -0.88113155
C       -2.09645312      -0.39104648      -1.35043489
C       -2.89527787      -1.18482485      -2.17783363
C       -2.48372046      -2.47532752      -2.53820377
O       -3.21322617      -3.25844103      -3.39853975
C       -4.63071996      -3.16657028      -3.26330473
C       -0.55962377      -7.68741725      -7.34311003
Br      -0.99999694      -6.25296243      -8.51213205
C       -0.18020060      -8.89383390      -7.94077183
C        0.18191518      -9.99238067      -7.15508767
O        0.55731759     -11.21298985      -7.65688973
C        0.61752436     -11.36048192      -9.06841404
H        1.47372195     -11.74803841      -3.40449706
H        0.30330335     -10.47886441      -3.03782943
H        1.89914700     -10.07253806      -3.78162004
H       -0.23006403      -8.56218179      -4.07303791
H       -1.63145079      -5.62780185      -5.86254809
H       -1.82237045      -4.33732406      -4.15394737
H        0.49756475      -2.53623385      -0.86402396
H       -2.42541006       0.61231600      -1.08988603
H       -3.82217412      -0.75942851      -2.54798164
H       -5.00748204      -2.22692411      -3.68006465
H       -4.94226888      -3.29155595      -2.22264191
H       -5.07089051      -3.98124817      -3.84765655
H       -0.17200297      -8.95656317      -9.02457014
H        0.94405406     -12.38181978      -9.28520681
H        1.35286708     -10.67686302      -9.50528622
H       -0.36935639     -11.22352712      -9.52170341
C       -9.72682963      -2.00490695       5.74554879
O      -10.59098008      -0.87506336       5.80929704
C      -10.28109069       0.17623734       4.98271653
C       -8.98161183       0.47322452       4.55802082
C       -8.74005957       1.59768939       3.75637875
C       -7.34798515       1.90035941       3.36007415
N       -6.42556187       0.99226499       3.34144825
N       -5.20023913       1.44200167       2.94881539
C       -4.16157580       0.56426591       2.69712782
O       -4.22407016      -0.65597290       2.81051994
C       -2.89710561       1.18919774       2.19361790
C       -2.06359089       0.37184191       1.41080265
C       -0.88113155       0.88113155       0.88113155
C       -0.50648214       2.19765469       1.13379765
C       -1.32243999       3.01592402       1.91957235
C       -2.51715344       2.52038893       2.45970939
O       -3.37281891       3.31350038       3.18388766
C       -2.74995379       4.26547544       4.04516575
C       -9.80542347       2.41646376       3.36826382
Br      -9.59665187       3.93138411       2.23705544
C      -11.10553453       2.11918178       3.79009003
C      -11.35140468       1.00953087       4.60461761
O      -12.59100291       0.65077601       5.07078307
C      -13.70409627       1.43710457       4.67017077
H      -10.21064327      -2.82154462       6.28971487
H       -8.77322804      -1.79862182       6.23878426
H       -9.57707761      -2.33351343       4.71144691
H       -8.13877219      -0.14113596       4.86764751
H       -7.11880249       2.93859975       3.06439851
H       -5.04072699       2.43903846       2.83387642
H       -2.35533995      -0.65615306       1.20350617
H        0.41144584       2.60151141       0.71291452
H       -1.01326845       4.04471368       2.07160214
H       -2.33632786       5.10339548       3.47474745
H       -1.98614111       3.79782159       4.67250403
H       -3.52534534       4.67120396       4.70324594
H      -11.91616651       2.76666478       3.47030498
H      -14.60135723       1.00179759       5.11981771
H      -13.83255071       1.41370039       3.58303107
H      -13.61343092       2.46456693       5.03658907
C       -1.66482561     -10.24731860       4.88497848
O       -1.00515680     -10.39187418       6.13849639
C       -0.50151524      -9.24380140       6.69775840
C       -0.07787596      -8.13816152       5.95257160
C        0.47540220      -7.02241729       6.59630822
C        0.94738432      -5.88947229       5.77156210
N        0.50569234      -5.68087034       4.57271243
N        1.04409325      -4.59124677       3.95571617
C        0.54200961      -4.12751291       2.75344701
O       -0.38855785      -4.63334455       2.13383050
C        1.17436943      -2.87441113       2.23114069
C        0.38002579      -2.07611619       1.39009346
C        0.88113155      -0.88113155       0.88113155
C        2.17636109      -0.47389262       1.18768078
C        2.97848191      -1.26513545       2.01431900
C        2.48989419      -2.47048173       2.53687583
O        3.22756141      -3.24129071       3.40135482
C        4.62706794      -3.30336523       3.13016182
C        0.58998805      -7.01003212       7.99013088
Br       1.27215316      -5.52674216       8.96619611
C        0.16442577      -8.11381227       8.73656830
C       -0.37174324      -9.23738714       8.09990925
O       -0.80413157     -10.36429053       8.75240304
C       -0.73681397     -10.37694931      10.17123627
H       -2.18324602     -11.18754889       4.67451064
H       -0.94522616     -10.07933621       4.07928044
H       -2.41597176      -9.45087647       4.92010639
H       -0.14064746      -8.13951982       4.86641137
H        1.69099662      -5.20936621       6.22143791
H        1.82693215      -4.10390824       4.38280149
H       -0.63628869      -2.38574204       1.15323970
H        2.56707957       0.46414320       0.80004372
H        3.97220005      -0.90228752       2.25509669
H        5.12672562      -2.37203427       3.41571090
H        4.82106316      -3.55219568       2.08320789
H        5.04773809      -4.10162470       3.75043244
H        0.25836309      -8.07725159       9.81752160
H       -1.13110033     -11.33699168      10.51708118
H       -1.36031339      -9.58696776      10.60262780
H        0.29855237     -10.29838088      10.51765367
