170
Properties=species:S:1:pos:R:3 pbc="F F F"
C       -0.31719987       3.29332973     -10.21828560
C        0.91236329       3.60046720      -9.38430387
O        1.76807379       4.45119016     -10.15134019
C        3.01401949       4.71962586      -9.64296379
C        3.27825458       4.64149779      -8.26868616
C        4.53555954       4.97605610      -7.75395742
C        4.78112256       4.87260946      -6.30240985
N        3.92644891       4.26992999      -5.54140742
N        4.23573622       4.24075509      -4.21797969
C        3.38466537       3.43609347      -3.41951537
C        2.74951589       2.29790146      -3.94234626
C        1.94883500       1.48239445      -3.13922879
C        1.79200421       1.79200421      -1.79200421
C        2.44076010       2.89495822      -1.24241497
C        3.24666106       3.70406448      -2.05078640
C        5.54864398       5.40362030      -8.59888641
C        5.29484532       5.48462529      -9.97104937
Br       6.73670600       6.05832346     -11.07914809
C        4.03427157       5.14728574     -10.51619627
O        3.94438722       5.29465166     -11.87794278
C        2.83030433       4.75448906     -12.57008875
H       -0.98885529       2.61388941      -9.68428687
H       -0.03638442       2.83865728     -11.17336702
H       -0.86168751       4.21457348     -10.44971294
H        1.42860018       2.66459904      -9.13788667
H        0.58810180       4.10681724      -8.46784296
H        2.50601211       4.34355265      -7.56612232
H        5.71623389       5.30966516      -5.90384260
H        4.42833961       5.14162514      -3.77954011
H        2.88145521       2.04236922      -4.99133540
H        1.46292374       0.61499965      -3.57531539
H        2.32981530       3.13320550      -0.18706951
H        3.75417691       4.55362279      -1.60310463
H        6.52779923       5.66193673      -8.20444264
H        2.68180626       3.69471911     -12.33766843
H        3.04464001       4.82193585     -13.64171585
H        1.93019592       5.34808782     -12.38637216
C      -10.50782312      -0.52575071      -2.16084162
C       -9.59228498      -1.61245490      -2.69239448
O      -10.35981642      -2.45844520      -3.55234252
C       -9.75979102      -3.60291880      -4.01389931
C       -8.36578106      -3.71340458      -4.10925289
C       -7.76593856      -4.86153296      -4.63810155
C       -6.29459907      -4.94726964      -4.71427315
N       -5.56155324      -4.07736381      -4.09886927
N       -4.21877344      -4.23316786      -4.24252970
C       -3.42503088      -3.38337281      -3.43187052
C       -3.87581161      -2.93388092      -2.18007108
C       -3.07101218      -2.13445112      -1.36499495
C       -1.79200421      -1.79200421      -1.79200421
C       -1.30931446      -2.25549146      -3.01332736
C       -2.11802604      -3.06134631      -3.82213959
C       -8.54531143      -5.91572317      -5.09011610
C       -9.93648569      -5.81500635      -4.99902794
Br     -10.94840268      -7.30806908      -5.61770579
C      -10.56639582      -4.66744729      -4.46391046
O      -11.93799825      -4.72060429      -4.45837912
C      -12.67457991      -3.75569783      -3.72460441
H       -9.97126343       0.12921034      -1.46726791
H      -11.36986449      -0.96041268      -1.64536270
H      -10.89907028       0.08066240      -2.98419103
H       -9.18746071      -2.19073964      -1.85288554
H       -8.77885322      -1.13398843      -3.24992034
H       -7.71712406      -2.90018449      -3.79837854
H       -5.85464669      -5.77991022      -5.29518475
H       -3.86970980      -4.27972740      -5.20006766
H       -4.86900046      -3.21172240      -1.83443697
H       -3.45192993      -1.79439429      -0.40691457
H       -0.30568096      -1.99944374      -3.34496561
H       -1.72136134      -3.42325188      -4.76629111
H       -8.08424866      -6.81082524      -5.49910470
H      -12.33798466      -3.69169641      -2.68451274
H      -13.71889890      -4.08417249      -3.70522032
H      -12.65463120      -2.78390175      -4.22612296
C        1.78317378       7.57879074       7.39879851
C        0.36623809       7.08217438       7.18119807
O       -0.51358410       7.89262395       7.96439608
C       -1.82922891       7.50974121       8.03763901
C       -2.42303266       6.72885394       7.03655192
C       -3.78069626       6.39482154       7.09005526
C       -4.37020854       5.56255666       6.02337667
N       -3.60441712       4.96158724       5.17178196
N       -4.24335351       4.23169465       4.21942284
C       -3.39811665       3.44373448       3.39842307
C       -2.18475886       2.92549782       3.87950693
C       -1.37793240       2.11131522       3.08121063
C       -1.79200421       1.79200421       1.79200421
C       -3.00835792       2.26437827       1.30539710
C       -3.81500833       3.07409907       2.11240454
C       -4.57251035       6.84135192       8.13728843
C       -3.98937934       7.62055001       9.14059064
Br      -5.12831804       8.18323588      10.56262363
C       -2.61863481       7.96733375       9.11178502
O       -2.20615140       8.74823872      10.16259154
C       -0.81984584       8.95024611      10.38479020
H        2.49945659       6.96444011       6.84433748
H        2.04416246       7.55835056       8.46145178
H        1.87953116       8.61707931       7.06505077
H        0.29576741       6.03315243       7.49370087
H        0.12906180       7.17658558       6.11523821
H       -1.84985515       6.38470776       6.18112418
H       -5.47189283       5.46390506       5.99394376
H       -4.95226480       4.72287058       3.67436948
H       -1.86384786       3.15912723       4.89218474
H       -0.44047173       1.73438437       3.47838268
H       -3.34067168       2.00712252       0.30229611
H       -4.76568632       3.42433342       1.72088459
H       -5.62687831       6.58232908       8.18497121
H       -0.27399763       8.00239447      10.43780171
H       -0.71064370       9.43934142      11.35830659
H       -0.39857078       9.62867185       9.63741327
C        8.45390704      -6.41099937      -1.67049095
C        7.80402530      -6.39283083      -0.29972177
O        8.60496851      -7.18364006       0.58199557
C        8.10807889      -7.43177855       1.83675171
C        7.17262067      -6.57825341       2.43756445
C        6.71798334      -6.80662977       3.74095995
C        5.72514789      -5.89263550       4.33835848
N        5.11342718      -5.02617416       3.59818498
N        4.22928391      -4.22078045       4.24440664
C        3.44330157      -3.39406307       3.40290956
C        3.09709080      -3.79147395       2.10119886
C        2.28388493      -2.99379321       1.29278010
C        1.79200421      -1.79200421       1.79200421
C        2.09195019      -1.39382336       3.09235973
C        2.90167742      -2.20053391       3.89930061
C        7.19503547      -7.88423503       4.47188020
C        8.12803656      -8.74124222       3.88124120
Br       8.72652556     -10.21542443       4.93222756
C        8.59915524      -8.53471104       2.56388729
O        9.52256917      -9.45661380       2.13779869
C        9.87840761      -9.51070904       0.76576550
H        7.85562257      -5.84515242      -2.39145399
H        8.57093287      -7.43717717      -2.03247017
H        9.45552813      -5.97130520      -1.62423442
H        6.79200692      -6.80978546      -0.37070649
H        7.76214071      -5.35379819       0.04682309
H        6.79630224      -5.70383029       1.91555456
H        5.51917153      -5.98938173       5.42118840
H        4.59012657      -3.70931302       5.05006527
H        3.46603497      -4.73758608       1.71153878
H        2.04231811      -3.32381689       0.28710378
H        1.69954397      -0.46065224       3.48989411
H        3.11615516      -1.88005159       4.91469757
H        6.84299450      -8.06762540       5.48355870
H        8.99796070      -9.59600674       0.12022636
H       10.47585235     -10.41603947       0.61639989
H       10.51114480      -8.66162809       0.49188302
C       -0.00445707       0.01189536      -1.78238275
H       -0.66409135       0.67374010      -2.43557963
H        0.65740317      -0.63156657      -2.45157240
C       -0.90989263      -0.90692880      -0.91072765
C        0.90977584       0.90977584      -0.90977584
C       -0.00465871       1.77757030       0.00794375
H       -0.66225468       2.44313916      -0.64384735
H        0.64322798       2.43503045       0.67728295
C       -1.78241447       0.00034974      -0.00472694
H       -2.45427497      -0.65498947       0.64260836
H       -2.43311707       0.67328779      -0.65473579
C       -0.91132561       0.90220522       0.91563759
C       -0.01476271      -0.02253852       1.78660255
H       -0.67934791      -0.69751639       2.42135241
H        0.63392994       0.61504881       2.47327442
C        0.01484550      -1.77751727      -0.01636693
H        0.67870853      -2.42144646      -0.68295456
H       -0.62264859      -2.45592969       0.64226336
C        1.78714474       0.01002794       0.00389507
H        2.44202412       0.67113390       0.66197326
H        2.45385902      -0.65136977      -0.64189061
C        0.91606151      -0.90478549       0.90901405
