165
Properties=species:S:1:pos:R:3 pbc="F F F"
C        0.00000000       0.00000000       0.00000000
C        0.88180667       0.88180667      -0.88180667
C        1.35882535       2.09603633      -0.38809891
C        2.17620307       2.89587416      -1.19033652
C        2.52110543       2.47363565      -2.48016922
C        1.99905210       1.27612160      -2.98587911
C        1.19378397       0.46961347      -2.17784137
C        3.37323414       3.35971589      -3.31291022
O        3.08754689       4.55465895      -3.33840963
N        4.42912682       2.81394175      -4.03953441
C        5.11439080       1.55769653      -3.69975700
C        5.58911802       0.83659233      -4.97016805
N        6.42510381       1.73241632      -5.78292490
C        5.75728735       2.99182498      -6.13788881
C        5.22171229       3.71800658      -4.89147694
C        7.82015124       1.70686408      -5.76934673
O        8.51639208       2.69058290      -6.00399976
C        8.50628824       0.42817773      -5.46115365
C        8.12943702      -0.76323124      -6.09497154
C        8.76670593      -1.96017095      -5.76138922
C        9.79701986      -1.95479119      -4.82032469
C       10.20777903      -0.76328506      -4.22094161
C        9.56493134       0.43336201      -4.54670075
H        1.09660288       2.43156652       0.61225096
H        2.53827251       3.85091682      -0.81450476
H        2.21249125       0.96998252      -4.00679376
H        0.80734997      -0.46833871      -2.56821615
H        4.49503883       0.89059838      -3.10111685
H        5.97570759       1.82858125      -3.07583066
H        6.11508879      -0.07202076      -4.67690211
H        4.73005017       0.54879382      -5.58736547
H        6.42811070       3.64931140      -6.70005617
H        4.92161415       2.72971570      -6.79764467
H        6.05228478       4.08948693      -4.27892767
H        4.62133769       4.58039733      -5.19967532
H        7.33807393      -0.76278997      -6.84073514
H        8.45642893      -2.88592448      -6.23915824
H       11.02403834      -0.75510900      -3.50296108
H        9.88606192       1.36625316      -4.08775709
C       10.44371874      -3.19168276      -4.46609342
C       10.98532906      -4.22757945      -4.16942473
Br      11.86106713      -5.90253679      -3.68973656
C       -0.88180667      -0.88180667      -0.88180667
C       -0.91737149      -2.25944038      -0.66614872
C       -1.73424909      -3.06379806      -1.46436661
C       -2.51976306      -2.48585959      -2.46928766
C       -2.44199919      -1.10820779      -2.71084584
C       -1.63620669      -0.30239283      -1.90263928
C       -3.35884696      -3.37389809      -3.31311520
O       -2.83713882      -4.39989998      -3.74357667
N       -4.67217148      -3.00925785      -3.60117365
C       -5.48936886      -2.11020923      -2.77226625
C       -6.45602216      -1.29532491      -3.64453132
N       -7.27216558      -2.19219445      -4.47608501
C       -6.47490595      -3.09587338      -5.31622181
C       -5.45732545      -3.89270283      -4.48116753
C       -8.57421908      -2.57282145      -4.14932152
O       -9.07441388      -3.63852185      -4.49803900
C       -9.40625390      -1.64616137      -3.34320435
C       -9.49935862      -0.28781627      -3.67400244
C      -10.26056138       0.57112688      -2.87848970
C      -10.94893353       0.06268583      -1.77630566
C      -10.89732296      -1.29793589      -1.47017673
C      -10.12873317      -2.15672105      -2.25953988
H       -0.31129639      -2.71669630       0.11207425
H       -1.75358192      -4.14084117      -1.30927100
H       -3.00205798      -0.65978717      -3.52742238
H       -1.59459044       0.76892935      -2.08156630
H       -4.88647602      -1.44179813      -2.15847991
H       -6.05309949      -2.74776315      -2.07925686
H       -7.06168498      -0.66424102      -2.99404413
H       -5.89617053      -0.64413222      -4.32590672
H       -7.11739352      -3.77815732      -5.88192743
H       -5.94345926      -2.46600026      -6.03951500
H       -5.97355319      -4.61267418      -3.83447201
H       -4.79677073      -4.45600729      -5.14863233
H       -8.97623315       0.10349072      -4.54327666
H      -10.31239958       1.62837942      -3.12564253
H      -11.44975493      -1.69833053      -0.62380495
H      -10.09085973      -3.21961058      -2.02960187
C      -11.72176879       0.95161449      -0.94797510
C      -12.36901832       1.69609223      -0.25424826
Br     -13.41556606       2.89984979       0.86744937
C       -0.88180667       0.88180667       0.88180667
C       -1.67234918       0.29858254       1.87202887
C       -2.46855272       1.10686575       2.68699530
C       -2.46381377       2.49652696       2.51456957
C       -1.70412135       3.07008683       1.48684463
C       -0.89674678       2.26265052       0.68184150
C       -3.33946284       3.32255250       3.38384492
O       -4.49439120       2.93673173       3.54949253
N       -2.83961318       4.49336749       3.94962231
C       -1.41453066       4.75612978       4.20118390
C       -1.10129592       6.25151731       4.04306517
N       -1.98265983       7.05131794       4.90646726
C       -3.41155765       6.80763439       4.66780910
C       -3.75355191       5.31066161       4.76698229
C       -1.59733595       7.54606596       6.15296014
O       -2.38604755       7.75431701       7.07061017
C       -0.16321572       7.84324225       6.38916166
C        0.58225792       8.58230809       5.46112716
C        1.93958639       8.81821712       5.68929347
C        2.53635187       8.34171133       6.85719389
C        1.78712947       7.64569126       7.80687378
C        0.43144004       7.40083419       7.57559995
H       -1.68190492      -0.77936461       2.01337814
H       -3.09819153       0.65463839       3.45086417
H       -1.74082511       4.14146244       1.30697998
H       -0.29390867       2.71481234      -0.10149360
H       -0.75975135       4.16760473       3.55939798
H       -1.21314314       4.43562352       5.23135284
H       -0.04575022       6.40980113       4.26441879
H       -1.28451187       6.57112504       3.01057254
H       -4.03143630       7.38434732       5.36169465
H       -3.62710167       7.16724992       3.65462293
H       -3.65441774       4.96355935       5.80272229
H       -4.79203304       5.15093891       4.45843840
H        0.11155725       8.96773109       4.55984526
H        2.51964511       9.37301340       4.95629441
H        2.24651019       7.29192758       8.72647302
H       -0.15899625       6.86499919       8.31607674
C        3.93936388       8.57270726       7.08478602
C        5.11438644       8.76616635       7.27539442
Br       7.01429854       9.07897334       7.58359209
C        0.88180667      -0.88180667       0.88180667
C        1.03857864      -0.57168789       2.23269406
C        1.83455734      -1.38619300       3.04166342
C        2.46322080      -2.51335295       2.49833655
C        2.33958544      -2.79066034       1.13080704
C        1.53151485      -1.98422917       0.32549478
C        3.31981561      -3.34353365       3.38251099
O        4.10674203      -2.75413196       4.11974147
N        3.22099525      -4.73212434       3.32948339
C        2.03151674      -5.46708730       2.87324030
C        2.43455937      -6.77859322       2.18272581
N        3.28672004      -7.58207745       3.07164755
C        4.48386069      -6.86791069       3.53522977
C        4.12160610      -5.52213878       4.18745094
C        2.81018521      -8.64142797       3.84474887
O        3.31851570      -8.98380503       4.90865400
C        1.63171677      -9.40216395       3.36173890
C        1.56173095      -9.86006401       2.03938236
C        0.42600072     -10.54289528       1.59902821
C       -0.61883757     -10.79146072       2.48993021
C       -0.53364448     -10.37871608       3.82036399
C        0.59778990      -9.68732616       4.25987804
H        0.55385286       0.30110671       2.66317229
H        1.97159511      -1.13936594       4.09273303
H        2.87232102      -3.62853078       0.68841573
H        1.42305968      -2.21524603      -0.73107831
H        1.40091064      -4.87489884       2.21094458
H        1.43208573      -5.68056910       3.76746467
H        1.52835387      -7.30635613       1.88526015
H        3.01860023      -6.56849453       1.27911471
H        5.06468719      -7.48167086       4.23112022
H        5.10713647      -6.69128962       2.65054843
H        3.59759518      -5.68613640       5.13696780
H        5.03712832      -4.96131353       4.40296849
H        2.38425186      -9.68063053       1.35113671
H        0.36609921     -10.87713065       0.56643284
H       -1.33827459     -10.58994865       4.52021635
H        0.67249579      -9.36965127       5.29792512
C       -1.79586268     -11.48272227       2.03126982
C       -2.78162122     -12.06165381       1.64714175
Br      -4.37550940     -12.99773715       1.02603914
