105
Properties=species:S:1:pos:R:3 pbc="F F F"
C        0.00000000       0.00000000       0.00000000
C        0.88258773       0.88258773      -0.88258773
C        0.44626584       1.24033935      -2.15550325
C        1.25364777       2.05211197      -2.95822674
C        2.49489613       2.51410550      -2.49867042
C        3.28840466       3.38584460      -3.37685896
H        2.88385049       3.56556021      -4.36927971
N        4.37538775       4.02178743      -2.90898362
O        4.78176265       4.96459621      -3.89278634
C        5.68335896       5.90348955      -3.45041796
O        6.29332144       5.91217397      -2.38629305
C        5.76127121       6.94009606      -4.46206806
C        5.21805620       7.02576875      -5.73419110
C        5.55375476       8.30046197      -6.24526028
C        6.28822235       8.92001832      -5.26149014
O        6.43723793       8.10375510      -4.18664396
C        2.91438144       2.13768175      -1.21624977
C        2.11429266       1.32490571      -0.40812182
H       -0.51399617       0.90474557      -2.53368168
H        0.90616992       2.33699670      -3.94768323
H        4.62851642       6.24728502      -6.20052653
H        5.27903036       8.71435871      -7.20369258
H        3.87392864       2.49115653      -0.84334078
H        2.46550771       1.05634182       0.58254685
C        6.81783528      10.25638858      -5.34648812
C        7.26138610      11.37559868      -5.41767393
Br       7.97857027      13.18526675      -5.53277537
C       -0.88258773      -0.88258773      -0.88258773
C       -2.16682090      -1.21538851      -0.45989903
C       -2.97346658      -2.01851428      -1.27200561
C       -2.50922248      -2.49084247      -2.50760710
C       -3.41142504      -3.30964038      -3.33004280
H       -4.37405720      -3.55502776      -2.88960544
N       -3.09687344      -3.60756641      -4.60171895
O       -4.24622609      -4.18540459      -5.20751452
C       -4.19399119      -4.26421150      -6.57906378
O       -3.22520173      -4.06271982      -7.30386691
C       -5.52837365      -4.58932375      -7.04573793
C       -6.68317261      -4.93364855      -6.36119489
C       -7.71254500      -5.06569295      -7.32123905
C       -7.12949891      -4.80181493      -8.53841696
O       -5.80731272      -4.53083637      -8.38948792
C       -1.21237170      -2.14623131      -2.90970994
C       -0.39879162      -1.34547504      -2.10305354
H       -2.55558576      -0.85645595       0.48761063
H       -3.97856169      -2.26892219      -0.94336597
H       -6.74672822      -5.04313135      -5.28646841
H       -8.74893187      -5.30773142      -7.14041836
H       -0.83845381      -2.50193033      -3.86804181
H        0.59857301      -1.09167302      -2.44620267
C       -7.82264903      -4.79745587      -9.80060709
C       -8.40316225      -4.79380515     -10.85769132
Br      -9.34180303      -4.78790225     -12.56690711
C       -0.88258773       0.88258773       0.88258773
C       -2.22700142       1.05247036       0.56263667
C       -3.03279413       1.85617823       1.37501411
C       -2.50752070       2.49085044       2.50930091
C       -3.40861730       3.30239619       3.34009472
H       -4.42723920       3.41326549       2.97818571
N       -3.01080504       3.75424085       4.54111290
O       -4.15230252       4.28268995       5.20415273
C       -3.98320431       4.50353699       6.55052518
O       -2.93692491       4.46533041       7.18953314
C       -5.29529422       4.75070605       7.11743506
C       -6.53655160       4.91748152       6.52398293
C       -7.48197072       5.05087428       7.56663201
C       -6.76660590       4.96516720       8.73795770
O       -5.44302305       4.80248594       8.48212800
C       -1.15129845       2.30834821       2.80866630
C       -0.33837624       1.50816961       2.00077434
H       -2.66259093       0.56602285      -0.30418271
H       -4.08377865       1.97939158       1.12767962
H       -6.70869874       4.91200870       5.45562053
H       -8.54961285       5.17781061       7.46965819
H       -0.72910432       2.79132494       3.68799669
H        0.70661629       1.38234743       2.26357155
C       -7.33759928       5.02453308      10.05857962
C       -7.81580624       5.07425200      11.16460048
Br      -8.58902644       5.15464330      12.95294266
C        0.88258773      -0.88258773       0.88258773
C        0.30704318      -1.62405711       1.91100815
C        1.11643317      -2.43444585       2.71310746
C        2.49892577      -2.51405249       2.49469379
C        3.29519940      -3.40279612       3.35311269
H        2.76077376      -3.89946642       4.15845023
N        4.57624018      -3.67568530       3.05423332
O        5.00221171      -4.73429304       3.90264046
C        6.17767598      -5.33734405       3.52224644
O        6.96784231      -4.96110023       2.66284592
C        6.30994809      -6.55649871       4.29698853
C        5.56557950      -7.06077046       5.35166609
C        6.10005154      -8.33060553       5.66881993
C        7.14425704      -8.52917887       4.79629490
O        7.29439669      -7.45862354       3.97461677
C        3.05573426      -1.75582720       1.45675150
C        2.25407598      -0.94170815       0.65153606
H       -0.76152867      -1.58879104       2.09716870
H        0.66285372      -3.01888724       3.50910889
H        4.72121324      -6.55437242       5.80074232
H        5.75363530      -9.01537292       6.42807344
H        4.12703338      -1.80950200       1.27189057
H        2.71549357      -0.37170885      -0.14789974
C        7.96185148      -9.71347105       4.74538945
C        8.64658682     -10.70531575       4.70275615
Br       9.75374596     -12.30904474       4.63382169
