118
Properties=species:S:1:pos:R:3 pbc="F F F"
C        1.79249176       1.79249176      -1.79249176
C        1.35616987       2.15024337      -3.06540728
C        2.16355179       2.96201599      -3.86813076
C        3.40480016       3.42400952      -3.40857444
C        4.19830868       4.29574862      -4.28676299
H        3.79375452       4.47546423      -5.27918373
N        5.28529178       4.93169145      -3.81888765
O        5.69166668       5.87450024      -4.80269037
C        6.59326298       6.81339358      -4.36032199
O        7.20322547       6.82207800      -3.29619707
C        6.67117523       7.85000009      -5.37197208
C        6.12796023       7.93567277      -6.64409512
C        6.46365878       9.21036599      -7.15516430
C        7.19812638       9.82992234      -6.17139416
Br       7.88480357      11.56261227      -6.28159951
O        7.34714196       9.01365913      -5.09654798
C        3.82428547       3.04758577      -2.12615379
C        3.02419668       2.23480974      -1.31802585
H        0.39590785       1.81464959      -3.44358571
H        1.81607394       3.24690072      -4.85758726
H        5.53842044       7.15718904      -7.11043056
H        6.18893438       9.62426274      -8.11359660
H        4.78383266       3.40106055      -1.75324481
H        3.37541174       1.96624584      -0.32735718
C       -1.79249176      -1.79249176      -1.79249176
C       -3.11377956      -2.03300920      -1.42503176
C       -3.91994103      -2.83644955      -2.23730796
C       -3.41818783      -3.40071069      -3.41848560
C       -4.31995261      -4.21531086      -4.24555682
H       -5.31665425      -4.38465136      -3.84709687
N       -3.95583190      -4.59979585      -5.48024313
O       -5.10202483      -5.14903865      -6.11779379
C       -4.98197179      -5.30677440      -7.47823235
O       -3.96657331      -5.19736630      -8.15756092
C       -6.30591042      -5.58652409      -8.00071289
C       -7.51260282      -5.83077328      -7.36435202
C       -8.49564525      -5.96160072      -8.37194311
C       -7.83540024      -5.79706742      -9.56697522
Br      -8.64480839      -5.83518212     -11.24902482
O       -6.50987350      -5.58834907      -9.35912650
C       -2.08474780      -3.14793660      -3.76534064
C       -1.27151680      -2.34752822      -2.95798725
H       -3.53139339      -1.60184048      -0.52090928
H       -4.95336175      -3.01478340      -1.95241677
H       -7.63877208      -5.87671012      -6.29055785
H       -9.55200039      -6.13817344      -8.23661989
H       -1.68118605      -3.57570086      -4.68125112
H       -0.24484919      -2.16621069      -3.25795487
C       -1.79249176       1.79249176       1.79249176
C       -3.14966148       1.91542160       1.50673744
C       -3.95521000       2.71932066       2.31916788
C       -3.41689517       3.40081913       3.41966983
C       -4.31738118       4.21041377       4.25302533
H       -5.34849697       4.28228386       3.91762165
N       -3.89929649       4.70758694       5.42898745
O       -5.03653506       5.22276034       6.10956188
C       -4.83626613       5.48690724       7.44380517
O       -3.77185488       5.49638970       8.05325596
C       -6.13855376       5.71348863       8.04110501
C       -7.40021166       5.82832832       7.47918814
C       -8.31954143       5.96517353       8.54447411
C       -7.56952032       5.93325660       9.69666596
Br      -8.26357040       6.03873446      11.42671048
O       -6.24947850       5.80036909       9.40750148
C       -2.04813907       3.26501773       3.68486823
C       -1.23544290       2.46497363       2.87661574
H       -3.59514844       1.39223468       0.66676002
H       -5.01581253       2.80591692       2.09883247
H       -7.60194844       5.78729773       6.41679388
H       -9.39268919       6.05935107       8.47475346
H       -1.61558683       3.78472201       4.53782918
H       -0.18031989       2.37604802       3.11264684
C        1.79249176      -1.79249176       1.79249176
C        1.23372780      -2.45719283       2.88089989
C        2.04271996      -3.26791495       3.68306363
C        3.40792922      -3.42411765       3.40533725
C        4.20294527      -4.30979464       4.26808038
H        3.68571164      -4.74249533       5.12019550
N        5.45414788      -4.65765757       3.92406542
O        5.87138373      -5.69541058       4.80206297
C        6.99811253      -6.37135752       4.39750849
O        7.76236472      -6.07364590       3.48548992
C        7.11135730      -7.55851714       5.22327297
C        6.39633137      -7.97719256       6.33420419
C        6.88646440      -9.25539422       6.68733045
C        7.87709595      -9.54408399       5.77826293
Br       8.86092939     -11.13037294       5.73771301
O        8.03652849      -8.52098264       4.89983794
C        3.94831064      -2.74223210       2.30748229
C        3.14705431      -1.92830454       1.50167342
H        0.17814266      -2.36186649       3.11413400
H        1.60166157      -3.79252272       4.52637763
H        5.59882871      -7.41050048       6.79671085
H        6.54593880      -9.88696793       7.49388699
H        5.00583228      -2.85599797       2.07630778
H        3.59510283      -1.41864308       0.65526884
C       -0.00445707       0.01189536      -1.78238275
H       -0.66409135       0.67374010      -2.43557963
H        0.65740317      -0.63156657      -2.45157240
C       -0.90989263      -0.90692880      -0.91072765
C        0.90977584       0.90977584      -0.90977584
C       -0.00465871       1.77757030       0.00794375
H       -0.66225468       2.44313916      -0.64384735
H        0.64322798       2.43503045       0.67728295
C       -1.78241447       0.00034974      -0.00472694
H       -2.45427497      -0.65498947       0.64260836
H       -2.43311707       0.67328779      -0.65473579
C       -0.91132561       0.90220522       0.91563759
C       -0.01476271      -0.02253852       1.78660255
H       -0.67934791      -0.69751639       2.42135241
H        0.63392994       0.61504881       2.47327442
C        0.01484550      -1.77751727      -0.01636693
H        0.67870853      -2.42144646      -0.68295456
H       -0.62264859      -2.45592969       0.64226336
C        1.78714474       0.01002794       0.00389507
H        2.44202412       0.67113390       0.66197326
H        2.45385902      -0.65136977      -0.64189061
C        0.91606151      -0.90478549       0.90901405
