186
Properties=species:S:1:pos:R:3 pbc="F F F"
C        1.79829563       1.79829563      -1.79829563
C        3.18099561       1.59411624      -1.71181879
C        4.05164841       2.34235688      -2.50445414
C        3.54794779       3.30982139      -3.37173665
C        2.17228313       3.53962349      -3.44042869
C        1.28715326       2.76589295      -2.67714467
C       -0.15663921       3.07769539      -2.69904415
O       -0.66193581       3.45650144      -1.63465128
N       -0.91133488       2.93474427      -3.87157828
C       -0.35041733       2.94298357      -5.24158724
C       -1.30874161       2.38756200      -6.31874214
N       -2.65106463       2.94662642      -6.15731838
C       -3.20368522       2.68555331      -4.82564150
C       -2.32223743       3.31851904      -3.75085108
C       -3.05835414       3.96267891      -7.02324581
O       -2.45086531       4.25508569      -8.05048758
C       -4.18329525       4.84071541      -6.63066486
C       -3.84315806       6.17754201      -6.36551733
C       -4.80714371       7.07549412      -5.90715350
C       -6.11472321       6.64130848      -5.70521928
C       -6.46981973       5.32311210      -6.00665622
C       -5.51322010       4.42603740      -6.49861275
H        3.58970934       0.86045587      -1.02071093
H        5.12471272       2.17834900      -2.43339353
H        4.22982495       3.89992673      -3.97982743
H        1.80036243       4.33568627      -4.08005798
H        0.58733220       2.38159893      -5.26984733
H       -0.12721844       3.99166428      -5.47042685
H       -0.90576601       2.59766249      -7.31523016
H       -1.39357774       1.29979973      -6.21518959
H       -4.22135830       3.05280032      -4.71329138
H       -3.23190279       1.59620188      -4.69928092
H       -2.36531973       4.41252784      -3.81784903
H       -2.70669979       3.02765147      -2.76776705
H       -2.82141389       6.51850180      -6.51939758
H       -4.53595767       8.10994333      -5.70732111
H       -6.86406177       7.33510600      -5.32897371
H       -7.50207901       5.01000669      -5.86083573
C       -5.96160325       3.10996438      -6.87345184
C       -6.33712413       2.00775321      -7.18737957
Br      -6.94430963       0.22557099      -7.69497417
C       -1.79829563      -1.79829563      -1.79829563
C       -2.68174403      -1.14141342      -2.66377319
C       -3.50218211      -1.87667742      -3.51959989
C       -3.45836627      -3.26938789      -3.50175167
C       -2.60172809      -3.93107853      -2.61952869
C       -1.74544612      -3.20075384      -1.78399091
C       -0.90690041      -3.91416039      -0.79903953
O       -1.13625563      -3.68912258       0.39616130
N        0.10628052      -4.79136971      -1.20989848
C        0.15690735      -5.46267643      -2.52838441
C        1.53936246      -6.05525300      -2.88167199
N        2.09147113      -6.79666565      -1.74768564
C        2.20476758      -5.96692578      -0.54535139
C        0.82948950      -5.45634677      -0.12027542
C        2.03619657      -8.19108220      -1.77268496
O        1.76359413      -8.83570926      -2.78259282
C        2.15916263      -8.94327867      -0.50396898
C        0.99910639      -9.61490579      -0.08410188
C        0.97362543     -10.28702823       1.13789889
C        2.10485231     -10.28658056       1.94992370
C        3.27597751      -9.65568769       1.51976160
C        3.31728866      -9.00751031       0.27879159
H       -2.74503013      -0.05564729      -2.67019872
H       -4.18565387      -1.36049917      -4.19030221
H       -4.10766668      -3.84025905      -4.16165338
H       -2.62039929      -5.01696722      -2.57874016
H       -0.15065237      -4.77093150      -3.31719459
H       -0.57737952      -6.27544473      -2.48204844
H        1.45291206      -6.69010436      -3.76993434
H        2.24121817      -5.24674269      -3.11588706
H        2.66184321      -6.49506994       0.28849333
H        2.85985564      -5.12435256      -0.79908309
H        0.20245687      -6.28896503       0.22145103
H        0.95742673      -4.76634806       0.72020260
H        0.11282017      -9.61402248      -0.71528318
H        0.07206393     -10.80741296       1.45404226
H        2.08105299     -10.79366116       2.91259023
H        4.15509104      -9.68483941       2.16098496
C        4.57764799      -8.45464963      -0.14481133
C        5.63319893      -7.99162882      -0.49957877
Br       7.33993552      -7.24296332      -1.07320773
C       -1.79829563       1.79829563       1.79829563
C       -2.92364528       1.19255006       2.37073530
C       -3.76439434       1.92484713       3.20921795
C       -3.49673429       3.26840059       3.46437096
C       -2.39339695       3.88658119       2.87235716
C       -1.52100795       3.14900506       2.06017787
C       -0.40737835       3.83709080       1.37563117
O       -0.43757082       3.85318119       0.13846490
N        0.63544780       4.42824954       2.10218593
C        0.54009074       4.85887364       3.51537058
C        1.90625841       5.11310239       4.19071855
N        2.77529591       5.90665067       3.32152541
C        2.98206582       5.27281413       2.01676128
C        1.64959343       5.10807876       1.28864736
C        2.93907568       7.26391998       3.60272627
O        2.58518801       7.77945791       4.66043805
C        3.41981826       8.17117084       2.53673244
C        2.48311832       9.10973803       2.07328157
C        2.79840862       9.96027949       1.01363304
C        4.04889055       9.87355390       0.40714120
C        5.00083792       8.97069482       0.89009168
C        4.70107968       8.13730939       1.97520034
H       -3.15910144       0.15185169       2.15992300
H       -4.63649898       1.44830006       3.65165621
H       -4.16054674       3.84004129       4.10899108
H       -2.23076010       4.94849304       3.03685353
H       -0.01835781       4.12179904       4.09862162
H       -0.03290263       5.79351120       3.50845886
H        1.75431850       5.60306305       5.15838210
H        2.41270371       4.15884777       4.37526752
H        3.66787190       5.83008877       1.38251652
H        3.43406398       4.29137010       2.20627390
H        1.23995852       6.08854703       1.01646863
H        1.82382857       4.54918077       0.36336653
H        1.50415898       9.17728916       2.54335531
H        2.06824322      10.68655285       0.66299715
H        4.29009229      10.52260158      -0.43249135
H        5.97926576       8.93349273       0.41453643
C        5.75314290       7.29407279       2.48088308
C        6.63424584       6.58786213       2.90439236
Br       8.05891477       5.44597923       3.58917107
C        1.79829563      -1.79829563       1.79829563
C        3.18324832      -1.65602012       1.64766219
C        4.05555810      -2.40761271       2.43528861
C        3.55014442      -3.31732711       3.36203431
C        2.17043548      -3.48619415       3.49570568
C        1.28593325      -2.70736389       2.73689374
C       -0.16705814      -2.95711682       2.83004165
O       -0.73146892      -3.35695741       1.80372842
N       -0.86546717      -2.73545406       4.02500078
C       -0.24829345      -2.71202115       5.37042578
C       -1.13736760      -2.07387920       6.46105093
N       -2.50672659      -2.58212509       6.37748167
C       -3.10381737      -2.35195644       5.05937053
C       -2.29451536      -3.06418702       3.97746103
C       -2.91790782      -3.54444889       7.30102951
O       -2.28009074      -3.82047236       8.31432634
C       -4.09281765      -4.38957237       6.99133030
C       -3.81827217      -5.74910416       6.76906929
C       -4.83606496      -6.62352078       6.38804809
C       -6.13240915      -6.14329268       6.22092102
C       -6.42111534      -4.80026864       6.48079528
C       -5.40932054      -3.92506384       6.89568676
H        3.59181221      -0.96862357       0.91044035
H        5.13042855      -2.29181480       2.31421189
H        4.23262134      -3.91056192       3.96639585
H        1.79392512      -4.23950735       4.18267420
H        0.71167878      -2.18983417       5.33726550
H       -0.05812757      -3.75907483       5.63392543
H       -0.70169136      -2.26038601       7.44843199
H       -1.18256823      -0.98857183       6.31540798
H       -4.13928490      -2.68036737       5.00365092
H       -3.09338932      -1.26835978       4.88860954
H       -2.37880328      -4.15183113       4.09202929
H       -2.70789158      -2.79728738       2.99932293
H       -2.80553953      -6.12619636       6.89582866
H       -4.61542361      -7.67565956       6.22107083
H       -6.92424172      -6.81960622       5.90465345
H       -7.44512938      -4.45021713       6.36367566
C       -5.78815792      -2.57728321       7.23268768
C       -6.10543422      -1.44851693       7.51492595
Br      -6.61844317       0.37660267       7.97128136
C       -0.00445707       0.01189536      -1.78238275
H       -0.66409135       0.67374010      -2.43557963
H        0.65740317      -0.63156657      -2.45157240
C       -0.90989263      -0.90692880      -0.91072765
C        0.90977584       0.90977584      -0.90977584
C       -0.00465871       1.77757030       0.00794375
H       -0.66225468       2.44313916      -0.64384735
H        0.64322798       2.43503045       0.67728295
C       -1.78241447       0.00034974      -0.00472694
H       -2.45427497      -0.65498947       0.64260836
H       -2.43311707       0.67328779      -0.65473579
C       -0.91132561       0.90220522       0.91563759
C       -0.01476271      -0.02253852       1.78660255
H       -0.67934791      -0.69751639       2.42135241
H        0.63392994       0.61504881       2.47327442
C        0.01484550      -1.77751727      -0.01636693
H        0.67870853      -2.42144646      -0.68295456
H       -0.62264859      -2.45592969       0.64226336
C        1.78714474       0.01002794       0.00389507
H        2.44202412       0.67113390       0.66197326
H        2.45385902      -0.65136977      -0.64189061
C        0.91606151      -0.90478549       0.90901405
