186
Properties=species:S:1:pos:R:3 pbc="F F F"
C        1.79223196       1.79223196      -1.79223196
C        3.00151603       2.27499728      -1.29296100
C        3.80473317       3.08529075      -2.09341451
C        3.40886637       3.38181768      -3.39890680
C        2.20730142       2.86932919      -3.91185779
C        1.37656894       2.10600495      -3.08688061
C        1.82463607       3.26450002      -5.29198197
O        1.98429415       4.44979507      -5.58608070
N        1.34359162       2.32834453      -6.21266373
C        0.75559651       2.86865085      -7.45111570
C        0.86394115       1.90974653      -8.64930077
N        0.38129099       0.57538432      -8.27955978
C        1.13797367       0.01002560      -7.16345484
C        1.04794631       0.91094453      -5.92128249
C       -0.97159249       0.23243308      -8.36077837
O       -1.52963150      -0.47218128      -7.52102100
C       -1.77621155       0.70771476      -9.51451361
C       -3.10833360       1.08246952      -9.29563804
C       -3.91028154       1.47882704     -10.36729942
C       -3.38594227       1.49207618     -11.65988188
C       -2.06482203       1.09907017     -11.87665914
C       -1.25734019       0.69548795     -10.81371903
H        3.31657153       2.03948235      -0.27958203
H        4.73408097       3.49191458      -1.70147728
H        4.03104406       4.02804109      -4.01559045
H        0.40577101       1.77031425      -3.43673625
H        1.22322018       3.82271463      -7.71642389
H       -0.29960388       3.07021661      -7.22961216
H        0.31096647       2.32713289      -9.49220224
H        1.91214345       1.80400575      -8.95385966
H        0.77819135      -0.99750529      -6.92709972
H        2.18150103      -0.08009240      -7.48718989
H        0.02892101       0.88103137      -5.51846419
H        1.73563778       0.52927288      -5.16226405
H       -3.52580604       1.05297618      -8.29063575
H       -4.94523519       1.76507590     -10.19538214
H       -4.01752570       1.79639382     -12.49102633
H       -0.23992823       0.35935192     -10.99304658
C       -1.53131255       1.10138103     -13.21418009
C       -1.08449836       1.10331639     -14.33435389
Br      -0.36203761       1.10644569     -16.14558018
C       -1.79223196      -1.79223196      -1.79223196
C       -1.47696825      -1.95118368      -3.14132237
C       -2.28393270      -2.75001929      -3.94948644
C       -3.38280096      -3.41016052      -3.39662936
C       -3.68100041      -3.27558905      -2.03189894
C       -2.90431839      -2.42727562      -1.23786051
C       -4.89255262      -3.96741065      -1.52115478
O       -5.90142097      -3.89486331      -2.22388564
N       -4.87075909      -4.68981108      -0.32402971
C       -6.17729790      -5.11029905       0.21223389
C       -6.10552551      -6.38624954       1.06878662
N       -5.04614089      -6.26551335       2.07541915
C       -3.73589325      -6.04180446       1.46624360
C       -3.73288248      -4.76206274       0.61477190
C       -5.27419489      -5.66416304       3.31673897
O       -4.44461138      -4.94164486       3.86704802
C       -6.55372841      -5.91806653       4.02577812
C       -7.14377107      -4.86929738       4.74329449
C       -8.31605155      -5.08858671       5.46879332
C       -8.89506635      -6.35756303       5.48661359
C       -8.29365693      -7.40439144       4.78714109
C       -7.11912678      -7.19718393       4.06444393
H       -0.61743519      -1.44493268      -3.57326803
H       -2.06375035      -2.85439109      -5.00933139
H       -4.01994164      -4.02038391      -4.03435004
H       -3.16731288      -2.24444204      -0.20106660
H       -6.89545919      -5.26743775      -0.59946175
H       -6.54539921      -4.27428577       0.81946009
H       -7.08182205      -6.56888900       1.52040944
H       -5.85937164      -7.24964602       0.43900880
H       -2.95897656      -5.98554688       2.23673766
H       -3.51399394      -6.91188679       0.83728222
H       -3.81118923      -3.88547193       1.26824458
H       -2.78767247      -4.70804864       0.06854641
H       -6.68231002      -3.88328715       4.74779127
H       -8.76970508      -4.27396407       6.02844631
H       -9.80505281      -6.52313551       6.05829387
H       -6.63785104      -8.02356909       3.54894985
C       -8.88716394      -8.71600849       4.81892385
C       -9.38422605      -9.81448777       4.84554191
Br     -10.18793346     -11.59063586       4.88858106
C       -1.79223196       1.79223196       1.79223196
C       -2.39114079       1.24962240       2.92871112
C       -3.20158347       2.05058895       3.73126601
C       -3.38260159       3.39704191       3.40994734
C       -2.75375168       3.95065752       2.28407921
C       -1.98973186       3.13041715       1.44930550
C       -3.02895988       5.37749283       1.97466534
O       -4.20057853       5.74344401       2.07614738
N       -2.00244324       6.25944431       1.62271233
C       -2.41694448       7.56907674       1.08934185
C       -1.39112687       8.68673265       1.34512892
N       -0.05330473       8.25627171       0.92665866
C        0.38228340       7.05551170       1.63822581
C       -0.59001748       5.88876807       1.40138777
C        0.38900799       8.40214374      -0.39151679
O        1.07434632       7.55334771      -0.95979317
C        0.04894561       9.63715504      -1.14219261
C       -0.24435415       9.53368964      -2.50826983
C       -0.51146659      10.68125774      -3.25687940
C       -0.47641746      11.93412182      -2.64452349
C       -0.16431291      12.03493488      -1.28834052
C        0.11017477      10.89517146      -0.53312991
H       -2.24586263       0.20355826       3.18621502
H       -3.69784183       1.62790098       4.60173002
H       -4.02907487       4.01545063       4.03015010
H       -1.56392175       3.51896867       0.52993109
H       -3.38207906       7.86970980       1.51056983
H       -2.55761027       7.43248354       0.01013108
H       -1.71185951       9.59167015       0.82677195
H       -1.33986210       8.91322584       2.41692091
H        1.39492387       6.77280156       1.32990809
H        0.41959431       7.30250377       2.70568906
H       -0.51480952       5.55296384       0.36064322
H       -0.30881768       5.06095524       2.05740178
H       -0.25181144       8.55885873      -2.99286427
H       -0.73457761      10.59866709      -4.31802185
H       -0.67983159      12.82455378      -3.23449092
H        0.38466787      10.98276960       0.51436855
C       -0.11605954      13.33114880      -0.66295977
C       -0.07564734      14.41672796      -0.13920339
Br      -0.01030423      16.17201764       0.70766638
C        1.79223196      -1.79223196       1.79223196
C        1.27742478      -2.97900454       2.31304499
C        2.07803927      -3.78200326       3.12339590
C        3.39830167      -3.40923835       3.38205082
C        3.92594141      -2.23114522       2.83140177
C        3.10248176      -1.39905571       2.06791704
C        5.32273228      -1.87108269       3.18730308
O        5.63989738      -2.01115032       4.36912222
N        6.23245129      -1.43169275       2.22045584
C        7.49544302      -0.86000595       2.71991409
C        8.66901378      -1.01647260       1.73750207
N        8.28000620      -0.55515557       0.40107333
C        7.13501474      -1.29875810      -0.12231873
C        5.91576670      -1.16088648       0.80352014
C        8.38329002       0.78765805       0.02598699
O        7.54036686       1.34881817      -0.67234047
C        9.56491870       1.57633749       0.45743562
C        9.38398768       2.92099930       0.80678558
C       10.48174429       3.70711927       1.16121991
C       11.76241670       3.15417899       1.15777808
C       11.94108147       1.82015828       0.78998408
C       10.85175677       1.02815109       0.42826111
H        0.25228890      -3.27624124       2.10710577
H        1.67496966      -4.69307930       3.55942387
H        4.01553041      -4.03076174       4.02838345
H        3.46600491      -0.44403643       1.70278018
H        7.77182359      -1.31233684       3.67819827
H        7.30187092       0.20411123       2.90246520
H        9.53310699      -0.47357843       2.12361619
H        8.94791559      -2.07335485       1.64873842
H        6.88398819      -0.95604726      -1.13224967
H        7.43353866      -2.35105565      -0.19599579
H        5.53495115      -0.13394262       0.75952280
H        5.13334884      -1.83953460       0.45429127
H        8.38802872       3.36028126       0.79005844
H       10.33919720       4.75174925       1.42777490
H       12.61394236       3.77341398       1.42936607
H       11.00097214      -0.00021345       0.11128468
C       13.26622102       1.25679749       0.77482504
C       14.37602539       0.78498283       0.76212935
Br      16.17048520       0.02209843       0.74160148
C       -0.00445707       0.01189536      -1.78238275
H       -0.66409135       0.67374010      -2.43557963
H        0.65740317      -0.63156657      -2.45157240
C       -0.90989263      -0.90692880      -0.91072765
C        0.90977584       0.90977584      -0.90977584
C       -0.00465871       1.77757030       0.00794375
H       -0.66225468       2.44313916      -0.64384735
H        0.64322798       2.43503045       0.67728295
C       -1.78241447       0.00034974      -0.00472694
H       -2.45427497      -0.65498947       0.64260836
H       -2.43311707       0.67328779      -0.65473579
C       -0.91132561       0.90220522       0.91563759
C       -0.01476271      -0.02253852       1.78660255
H       -0.67934791      -0.69751639       2.42135241
H        0.63392994       0.61504881       2.47327442
C        0.01484550      -1.77751727      -0.01636693
H        0.67870853      -2.42144646      -0.68295456
H       -0.62264859      -2.45592969       0.64226336
C        1.78714474       0.01002794       0.00389507
H        2.44202412       0.67113390       0.66197326
H        2.45385902      -0.65136977      -0.64189061
C        0.91606151      -0.90478549       0.90901405
