146
Properties=species:S:1:pos:R:3 pbc="F F F"
C        1.78167754       1.78167754      -1.78167754
C        1.66582959       1.84436429      -3.14708257
C        2.62056483       2.74883841      -3.70127200
C        3.41568005       3.33161764      -2.73149335
C        4.48270542       4.28826123      -2.89191389
N        4.80988988       4.70001976      -4.07605709
N        5.82469746       5.60580969      -4.13939378
C        6.24922146       6.07887012      -5.36707688
O        5.83275240       5.78471920      -6.48101538
C        7.40453451       7.08033063      -5.24987403
O        7.79682367       7.42438200      -4.14257375
N        7.87652799       7.44965134      -6.49460696
N        8.91071366       8.32821129      -6.63545042
C        9.36324791       8.44507152      -7.84536080
C       10.44794708       9.34333208      -8.14831905
C       11.02071571      10.32282406      -7.35949670
C       12.09729030      10.98807807      -8.02157067
C       12.29784473      10.47367838      -9.27769172
S       11.20368266       9.24575563      -9.68235455
S        3.00254588       2.78189981      -1.16400720
H        0.94589758       1.28102830      -3.72812798
H        2.72235881       2.96509705      -4.75978406
H        5.00475683       4.65196854      -1.98766856
H        6.29133976       5.95083066      -3.30133783
H        7.42573036       7.02796841      -7.30761640
H        8.94181164       7.84808775      -8.67531339
H       10.68193216      10.54889220      -6.35431459
H       12.68670134      11.78563253      -7.58608115
C       13.33148248      10.93031185     -10.17026041
C       14.19715410      11.31274239     -10.91778669
Br      15.59687189      11.93110022     -12.12647346
C       -1.78167754      -1.78167754      -1.78167754
C       -2.82689022      -2.52901674      -1.30136948
C       -3.46642777      -3.25099493      -2.35325253
C       -2.87839443      -3.01750587      -3.58289074
C       -3.23409889      -3.55658290      -4.87219875
N       -4.22134560      -4.38935606      -4.97526506
N       -4.49388138      -4.84782529      -6.22819426
C       -5.51789489      -5.75638296      -6.42089061
O       -6.26232072      -6.25234387      -5.58382240
C       -5.67546621      -6.17030660      -7.88896636
O       -4.97483326      -5.64480006      -8.74414610
N       -6.63123117      -7.15751412      -8.03204099
N       -6.93532313      -7.68700737      -9.25204487
C       -7.71565110      -8.72242376      -9.21560537
C       -8.13017074      -9.38213777     -10.42728970
C       -7.99112994      -8.97223196     -11.73967457
C       -8.51778632      -9.92704315     -12.66210957
C       -9.02131158     -11.02188415     -12.00601910
S       -8.90620036     -10.90537017     -10.32022231
S       -1.56202442      -1.93083803      -3.45559044
H       -3.12658137      -2.56728755      -0.26118494
H       -4.31760451      -3.91058909      -2.21904632
H       -2.64661433      -3.24297535      -5.75480425
H       -3.96004180      -4.54235450      -7.04111195
H       -7.09432909      -7.48403079      -7.18295529
H       -8.07186661      -9.13841005      -8.25493613
H       -7.53174369      -8.03125013     -12.02214514
H       -8.51037411      -9.80925973     -13.73878117
C       -9.59566472     -12.15894319     -12.67744684
C      -10.07668547     -13.11123014     -13.23976757
Br     -10.85445535     -14.65099759     -14.14899263
C       -1.78167754       1.78167754       1.78167754
C       -2.72793532       1.28669394       2.64264719
C       -3.39610998       2.34282403       3.33174123
C       -2.92561471       3.58989375       2.96328258
C       -3.34293531       4.88833976       3.43160547
N       -4.29065866       4.98554455       4.30976351
N       -4.62139393       6.24710504       4.70140196
C       -5.63746945       6.43862415       5.61907486
O       -6.33851352       5.59512220       6.16485127
C       -5.88050263       7.91937435       5.93486220
O       -5.15454568       8.77079840       5.43843533
N       -6.97010674       8.08229803       6.76838151
N       -7.37929563       9.31788834       7.17719140
C       -8.51342213       9.33391903       7.80633907
C       -9.06750793      10.56630175       8.30578852
C       -8.47876199      11.81199298       8.41228151
C       -9.37537176      12.78929403       8.94227325
C      -10.60605102      12.24104433       9.20211948
S      -10.68860726      10.58456267       8.85862291
S       -1.68394598       3.47367205       1.79083486
H       -2.94091388       0.23364947       2.78049051
H       -4.18417657       2.19925825       4.06380510
H       -2.83788457       5.78317064       3.02333872
H       -4.14096448       7.06794374       4.33460003
H       -7.46547570       7.23799830       7.05784117
H       -9.09516624       8.40669687       7.96334967
H       -7.45281999      12.01044034       8.12187862
H       -9.12228301      13.82953050       9.10660151
C      -11.72023294      12.99253153       9.71929028
C      -12.65336030      13.62190206      10.15242082
Br     -14.16214832      14.63954098      10.85275627
C        1.78167754      -1.78167754       1.78167754
C        2.10970932      -3.07682147       1.47074566
C        2.94248879      -3.65031511       2.47787135
C        3.20910168      -2.76419235       3.50549700
C        4.00337220      -2.96778688       4.69172146
N        4.56918346      -4.11415817       4.90262509
N        5.30436747      -4.22175609       6.04377737
C        5.92269748      -5.41876191       6.35370907
O        5.90449322      -6.46965963       5.72433414
C        6.69621898      -5.36199230       7.67652788
O        6.76781027      -4.30545484       8.29051429
N        7.20962499      -6.60017010       8.01099118
N        7.92954174      -6.79075876       9.15407487
C        8.19441691      -8.03037343       9.42888989
C        8.95530554      -8.38458719      10.59970547
C        9.67438730      -7.57260514      11.45604403
C       10.27583525      -8.30988625      12.52121755
C        9.97486963      -9.64539221      12.42895299
S        9.02452829     -10.02728986      11.07997469
S        2.45252469      -1.25106929       3.24485891
H        1.77943068      -3.59618919       0.57943399
H        3.33015414      -4.66357698       2.45350879
H        4.11118693      -2.12911050       5.40409651
H        5.41464060      -3.44010932       6.68875834
H        7.01789643      -7.37217187       7.37124687
H        7.83103578      -8.85113655       8.78304045
H        9.76243004      -6.49986130      11.32284762
H       10.88020603      -7.87202877      13.30618021
C       10.42242036     -10.63073180      13.37890259
C       10.79724410     -11.45595370      14.17448538
Br      11.40330238     -12.79026772      15.46087546
C       -0.00445707       0.01189536      -1.78238275
H       -0.66409135       0.67374010      -2.43557963
H        0.65740317      -0.63156657      -2.45157240
C       -0.90989263      -0.90692880      -0.91072765
C        0.90977584       0.90977584      -0.90977584
C       -0.00465871       1.77757030       0.00794375
H       -0.66225468       2.44313916      -0.64384735
H        0.64322798       2.43503045       0.67728295
C       -1.78241447       0.00034974      -0.00472694
H       -2.45427497      -0.65498947       0.64260836
H       -2.43311707       0.67328779      -0.65473579
C       -0.91132561       0.90220522       0.91563759
C       -0.01476271      -0.02253852       1.78660255
H       -0.67934791      -0.69751639       2.42135241
H        0.63392994       0.61504881       2.47327442
C        0.01484550      -1.77751727      -0.01636693
H        0.67870853      -2.42144646      -0.68295456
H       -0.62264859      -2.45592969       0.64226336
C        1.78714474       0.01002794       0.00389507
H        2.44202412       0.67113390       0.66197326
H        2.45385902      -0.65136977      -0.64189061
C        0.91606151      -0.90478549       0.90901405
