137
Properties=species:S:1:pos:R:3 pbc="F F F"
C        0.00000000       0.00000000       0.00000000
O       -1.37406576       6.63506350      -5.57731903
C       -1.33946170       5.66658660      -4.81400835
N       -0.12653615       5.10233786      -4.48754356
N       -0.02665032       4.04967713      -3.63618733
C        1.16630372       3.63403808      -3.35468458
C        1.31857076       2.54918300      -2.41715726
S        2.87956869       1.96128151      -2.04069417
C        2.24840448       0.80429879      -0.94528793
C        0.87856209       0.87856209      -0.87856209
C        0.33191755       1.87479521      -1.72123805
C       -2.59690273       5.03285577      -4.23393433
C       -3.45613187       6.01186498      -3.45054028
C       -4.51319092       6.62684479      -4.13964437
C       -5.35136845       7.52494821      -3.49476985
C       -5.14139569       7.83226017      -2.15059138
Br      -6.36829660       9.07526308      -1.38082241
C       -4.07819255       7.24898727      -1.41571686
C       -3.82599829       7.54148555      -0.05082615
C       -2.77408333       6.95572198       0.65221844
C       -1.94293180       6.05638445       0.00995130
C       -2.16677383       5.74750290      -1.33213931
C       -3.22194333       6.32435193      -2.07870025
H        0.69799050       5.54513111      -4.87914294
H        2.06777287       4.09067246      -3.79930756
H        2.90818820       0.13669175      -0.40942704
H       -0.72359566       2.10095837      -1.81928743
H       -2.39390610       4.15074033      -3.62074085
H       -3.16496483       4.63647735      -5.08646481
H       -4.68550400       6.40882660      -5.19216307
H       -6.16501829       7.98318248      -4.05121276
H       -4.45409749       8.24236396       0.49409709
H       -2.61073106       7.20542118       1.69700386
H       -1.11986749       5.59143530       0.54579049
H       -1.48791801       5.03372503      -1.78715509
O       -0.99915675      -8.63547579      -1.20368424
C       -0.71281362      -7.45858955      -0.96973009
N       -1.39813223      -6.45224552      -1.61296751
N       -1.14048317      -5.14016648      -1.37856448
C       -1.88233904      -4.27737440      -1.99531294
C       -1.67326766      -2.87422301      -1.73742035
S       -2.62112677      -1.70766348      -2.55275412
C       -1.83672183      -0.41478981      -1.74647956
C       -0.87856209      -0.87856209      -0.87856209
C       -0.77271229      -2.28925029      -0.86598824
C        0.40419941      -7.05947237      -0.01461440
C        0.22287163      -7.61694970       1.38780467
C        0.88072270      -8.82047693       1.68645599
C        0.77576012      -9.39094161       2.94683188
C        0.00225338      -8.77293829       3.92922905
Br      -0.05304936      -9.65542896       5.62068942
C       -0.69349587      -7.56455925       3.67154354
C       -1.49670632      -6.90971317       4.64010609
C       -2.17219620      -5.72160370       4.36437970
C       -2.06212235      -5.15099898       3.10961999
C       -1.27802999      -5.77114578       2.13630739
C       -0.58074401      -6.97887877       2.37851392
H       -2.14270076      -6.74081012      -2.23875366
H       -2.67508615      -4.58189713      -2.70076960
H       -2.11739355       0.60959835      -1.94651179
H       -0.08354999      -2.85938288      -0.25371727
H        0.56372560      -5.97912858       0.03782788
H        1.33630989      -7.44288669      -0.45140053
H        1.47918879      -9.32385088       0.92917641
H        1.29938825     -10.32110921       3.15234401
H       -1.61164018      -7.32226929       5.63974010
H       -2.77980705      -5.24929403       5.13141482
H       -2.58216653      -4.22468522       2.88107444
H       -1.22286163      -5.28029112       1.17019064
O        1.18289997       4.71358608       7.30763067
C        1.15279931       3.97062287       6.32330970
N       -0.01853066       3.83209685       5.61271776
N       -0.10403434       3.04572264       4.50945716
C       -1.23765375       3.03230802       3.88506461
C       -1.35609909       2.24759524       2.68121669
S       -2.84645592       2.19030561       1.84478284
C       -2.20063751       1.16111058       0.63624311
C       -0.87856209       0.87856209       0.87856209
C       -0.38216949       1.49418772       2.05159361
C        2.35897783       3.15893247       5.86993272
C        3.58069695       4.01335523       5.57361512
C        4.51897522       4.16577924       6.60649422
C        5.66700036       4.92087064       6.41447934
C        5.89289293       5.54603637       5.18831241
Br       7.51185015       6.54767195       5.05196709
C        4.96767591       5.43461630       4.11957120
C        5.15629993       6.06144840       2.86116493
C        4.23267272       5.93803866       1.82405426
C        3.09169801       5.18045029       2.01474906
C        2.87908536       4.55053382       3.24141992
C        3.79228150       4.65562509       4.31776527
H       -0.80677474       4.38762962       5.92786019
H       -2.10958350       3.61039709       4.23777229
H       -2.81709032       0.82102914      -0.18381247
H        0.63174707       1.40429344       2.42410377
H        2.14829062       2.51099113       5.01487458
H        2.58290720       2.45658863       6.68429589
H        4.35423810       3.69542422       7.57429956
H        6.37911206       5.01853981       7.22994919
H        6.03888474       6.66635225       2.66670186
H        4.41036914       6.43419318       0.87386223
H        2.36382117       5.07469096       1.21490753
H        1.97010416       3.96578791       3.33727837
O        5.87873122      -6.36311525      -1.40352970
C        4.99794765      -5.50062792      -1.35744230
N        4.60122651      -4.99976775      -0.13764900
N        3.65265663      -4.03481775      -0.02826025
C        3.39649755      -3.59631245       1.16221638
C        2.43002162      -2.53757617       1.31731323
S        2.05204819      -1.95103738       2.87845880
C        0.94548145      -0.80412418       2.24838556
C        0.87856209      -0.87856209       0.87856209
C        1.72423905      -1.87208757       0.33162419
C        4.29215967      -4.98032213      -2.60259443
C        5.24456884      -4.39320802      -3.63150345
C        5.67312201      -5.24326910      -4.66309288
C        6.53433140      -4.78251278      -5.64849456
C        6.99095398      -3.46505730      -5.61455543
Br       8.16385475      -2.95529218      -7.03135804
C        6.59886143      -2.57251039      -4.58486023
C        7.04735553      -1.22888757      -4.50992969
C        6.64850935      -0.36866188      -3.48775103
C        5.78557775      -0.82738546      -2.50946188
C        5.32611709      -2.14394824      -2.55719695
C        5.71158397      -3.04659332      -3.57706844
H        5.08989673      -5.35497913       0.67738869
H        3.90198382      -3.99803310       2.05773597
H        0.40743831      -0.13848608       2.90838260
H        1.82538792      -2.09545422      -0.72419200
H        3.50036500      -4.25934909      -2.38213900
H        3.75657022      -5.83637082      -3.03496371
H        5.33710667      -6.27805167      -4.69967266
H        6.84670937      -5.46095391      -6.43828634
H        7.72626085      -0.82557027      -5.25766175
H        7.01416500       0.65420520      -3.46227353
H        5.46557162      -0.16770158      -1.70749588
H        4.64858566      -2.45200775      -1.76763130
