158
Properties=species:S:1:pos:R:3 pbc="F F F"
O       -0.46416174       7.54496753      -6.48722305
C       -0.42955767       6.57649063      -5.72391238
N        0.78336787       6.01224188      -5.39744759
N        0.88325370       4.95958115      -4.54609135
C        2.07620775       4.54394210      -4.26458861
C        2.22847478       3.45908703      -3.32706129
S        3.78947272       2.87118554      -2.95059819
C        3.15830850       1.71420281      -1.85519195
C        1.78846611       1.78846611      -1.78846611
C        1.24182157       2.78469924      -2.63114208
C       -1.68699871       5.94275979      -5.14383835
C       -2.54622784       6.92176901      -4.36044431
C       -3.60328689       7.53674881      -5.04954839
C       -4.44146442       8.43485223      -4.40467388
C       -4.23149167       8.74216419      -3.06049540
Br      -5.45839257       9.98516711      -2.29072643
C       -3.16828852       8.15889130      -2.32562089
C       -2.91609427       8.45138957      -0.96073018
C       -1.86417931       7.86562600      -0.25768559
C       -1.03302778       6.96628847      -0.89995272
C       -1.25686981       6.65740692      -2.24204334
C       -2.31203930       7.23425596      -2.98860428
H        1.60789452       6.45503514      -5.78904696
H        2.97767690       5.00057648      -4.70921158
H        3.81809222       1.04659577      -1.31933107
H        0.18630836       3.01086239      -2.72919146
H       -1.48400207       5.06064436      -4.53064488
H       -2.25506081       5.54638137      -5.99636883
H       -3.77559997       7.31873063      -6.10206709
H       -5.25511427       8.89308650      -4.96111678
H       -3.54419347       9.15226798      -0.41580693
H       -1.70082703       8.11532520       0.78709983
H       -0.20996346       6.50133932      -0.36411353
H       -0.57801399       5.94362906      -2.69705911
O       -1.57648423      -2.47141630      -9.52012831
C       -1.40476052      -2.11414005      -8.35194477
N       -2.16696461      -2.67465431      -7.35143842
N       -2.00645099      -2.33574064      -6.04673457
C       -2.73650082      -2.96519154      -5.18304609
C       -2.56268415      -2.66936746      -3.78257148
S       -3.52714101      -3.46684327      -2.61727217
C       -2.75667381      -2.64557272      -1.32545674
C       -1.78846611      -1.78846611      -1.78846611
C       -1.66894522      -1.79060136      -3.19811631
C       -0.39839093      -1.03998010      -7.96122840
C        1.02199049      -1.36088303      -8.39709294
C        1.45321138      -0.81839420      -9.61782749
C        2.73898553      -1.05434936     -10.08269785
C        3.61435072      -1.84601782      -9.33950082
Br       5.35456426      -2.08640170     -10.08566353
C        3.22067459      -2.42871194      -8.10818632
C        4.07744950      -3.24617227      -7.32730271
C        3.66878146      -3.80897945      -6.11893429
C        2.38896974      -3.56832389      -5.65385926
C        1.52359062      -2.76692578      -6.39924529
C        1.90194096      -2.18156782      -7.63119407
H       -2.82539197      -3.39312206      -7.63346259
H       -3.47669249      -3.72719401      -5.48357845
H       -3.04874151      -2.83334371      -0.30193385
H       -0.96787113      -1.19114661      -3.76734447
H       -0.41001263      -0.80339519      -6.89387933
H       -0.73554124      -0.11113441      -8.44101374
H        0.78049842      -0.20797806     -10.21771811
H        3.04823895      -0.61818571     -11.02914226
H        5.09203432      -3.46181778      -7.65409799
H        4.35268783      -4.43152242      -5.54856374
H        2.05734684      -3.99959698      -4.71323925
H        0.53233482      -2.60716664      -5.98784236
O       -2.34263344       1.69266188       9.53273352
C       -2.08190143       1.43384364       8.35510027
N       -2.67439598       2.16719766       7.35146370
N       -2.40832109       1.94097469       6.03963043
C       -2.97701135       2.72583793       5.18188917
C       -2.68331805       2.55009904       3.78120600
S       -3.43529800       3.55559864       2.62035980
C       -2.61377956       2.78535507       1.32856865
C       -1.78846611       1.78846611       1.78846611
C       -1.82133348       1.64122115       3.19510826
C       -1.14819353       0.30076939       7.95063651
C        0.24154778       0.42359504       8.55393821
C        0.48463942      -0.27771816       9.74536789
C        1.72984662      -0.22730551      10.35521382
C        2.75247627       0.53404465       9.78959955
Br       4.41757704       0.51280770      10.72227031
C        2.55156464       1.27213455       8.59565375
C        3.56234334       2.06465139       7.99371744
C        3.34220779       2.78245050       6.81888958
C        2.10246710       2.72676655       6.20891396
C        1.08854125       1.95450487       6.77661683
C        1.27396205       1.21536306       7.96941992
H       -3.28659797       2.92148953       7.64388912
H       -3.66788909       3.53019267       5.48938319
H       -2.77470757       3.10163836       0.30767313
H       -1.24679625       0.91766845       3.76189751
H       -1.06801672       0.17129216       6.86797829
H       -1.62327007      -0.62858720       8.29300652
H       -0.30452778      -0.86759789      10.20826786
H        1.89199777      -0.78375121      11.27483799
H        4.55206759       2.13745522       8.43849381
H        4.14045601       3.38026886       6.38758548
H        1.91708258       3.28021054       5.29236143
H        0.13639695       1.94268989       6.25638125
O       -0.15899295      -8.44230817       5.28471362
C       -0.17222085      -7.37255864       4.67050754
N        0.97258280      -6.60966619       4.61080835
N        1.02206239      -5.43537887       3.93148495
C        2.16407916      -4.82754295       3.89311634
C        2.27133163      -3.60162665       3.14166482
S        3.76001907      -2.76190136       3.08933601
C        3.10986003      -1.54480346       2.07303977
C        1.78846611      -1.78846611       1.78846611
C        1.29397050      -2.96523782       2.39845457
C       -1.42388377      -6.82950256       3.99398064
C       -2.01213237      -7.78216417       2.96595368
C       -3.04448267      -8.62956659       3.39792638
C       -3.64279833      -9.52138386       2.51947615
C       -3.21244224      -9.58910656       1.19450361
Br      -4.12221944     -10.85101272       0.08870768
C       -2.16317552      -8.76494735       0.71445183
C       -1.69099516      -8.80941298      -0.62239235
C       -0.65737321      -7.98917291      -1.07266742
C       -0.06578242      -7.09667746      -0.19768162
C       -0.50968540      -7.02893232       1.12333353
C       -1.55361156      -7.84752445       1.61690804
H        1.79599994      -6.99415746       5.06181922
H        3.05795538      -5.22352128       4.40598830
H        3.72482641      -0.72181717       1.73737548
H        0.28185080      -3.34129075       2.30322066
H       -1.27884252      -5.84501386       3.54111581
H       -2.15354389      -6.64674404       4.79448925
H       -3.38574041      -8.59972952       4.43120865
H       -4.44318307     -10.16281058       2.87946150
H       -2.12693425      -9.49557687      -1.34476118
H       -0.32107087      -8.05240418      -2.10393497
H        0.74007158      -6.45057924      -0.53516144
H       -0.01412086      -6.30967975       1.76711529
C       -0.00445707       0.01189536      -1.78238275
H       -0.66409135       0.67374010      -2.43557963
H        0.65740317      -0.63156657      -2.45157240
C       -0.90989263      -0.90692880      -0.91072765
C        0.90977584       0.90977584      -0.90977584
C       -0.00465871       1.77757030       0.00794375
H       -0.66225468       2.44313916      -0.64384735
H        0.64322798       2.43503045       0.67728295
C       -1.78241447       0.00034974      -0.00472694
H       -2.45427497      -0.65498947       0.64260836
H       -2.43311707       0.67328779      -0.65473579
C       -0.91132561       0.90220522       0.91563759
C       -0.01476271      -0.02253852       1.78660255
H       -0.67934791      -0.69751639       2.42135241
H        0.63392994       0.61504881       2.47327442
C        0.01484550      -1.77751727      -0.01636693
H        0.67870853      -2.42144646      -0.68295456
H       -0.62264859      -2.45592969       0.64226336
C        1.78714474       0.01002794       0.00389507
H        2.44202412       0.67113390       0.66197326
H        2.45385902      -0.65136977      -0.64189061
C        0.91606151      -0.90478549       0.90901405
