198
Properties=species:S:1:pos:R:3 pbc="F F F"
C        1.79125088       1.79125088      -1.79125088
C        1.60663813       1.79664842      -3.17154624
C        2.40916273       2.61170343      -3.97643612
C        3.40380710       3.42379985      -3.41160273
C        3.57707970       3.39816070      -2.01846438
C        2.77333917       2.58832200      -1.21005702
C        4.23321819       4.29226193      -4.23941786
C        5.44749978       4.92218285      -4.05181011
C        5.68305229       5.70205759      -5.20818906
C        4.60602949       5.50016103      -6.04676479
C        4.27215477       6.04668276      -7.33207039
N        4.93411827       7.05794352      -7.79759364
N        4.57697880       7.49117702      -9.03871356
C        5.13365996       8.60833455      -9.62092830
O        4.83580845       8.91039127     -10.77988843
C        6.07401282       9.45428829      -8.78079704
C        7.53412635       9.05719235      -8.90820124
C        8.02865332       8.14555766      -7.96133980
C        9.34967760       7.72572327      -7.99238023
C       10.21102176       8.22559368      -8.96562609
Br      12.00509350       7.57778651      -8.89640758
C        9.76506699       9.15422426      -9.93932698
C       10.61541728       9.70063182     -10.93264022
C       10.15639589      10.60983265     -11.88273774
C        8.82518949      10.99077001     -11.87668712
C        7.96088293      10.47009309     -10.91288564
C        8.39878472       9.56285298      -9.91947498
O        3.73512165       4.62014304      -5.47126802
H        0.84243697       1.17587103      -3.63195936
H        2.25138611       2.60531861      -5.05267440
H        4.32917975       4.02275995      -1.54185046
H        2.91913441       2.59346727      -0.13278062
H        6.08192321       4.84285105      -3.17994998
H        6.53098738       6.34153589      -5.40619506
H        3.43404706       5.58273325      -7.88139320
H        3.93861378       6.95204647      -9.61572343
H        5.76492750       9.42274195      -7.72874182
H        5.92936406      10.50644766      -9.05324964
H        7.37537574       7.75594975      -7.18588410
H        9.69776141       7.01282288      -7.24994265
H       11.66682959       9.42452512     -10.97993656
H       10.83795477      11.01205245     -12.62738729
H        8.45217642      11.69019168     -12.61962108
H        6.92212086      10.78879017     -10.96184271
C       -1.79125088      -1.79125088      -1.79125088
C       -1.42398554      -2.03942519      -3.11142206
C       -2.22816604      -2.85457874      -3.91455749
C       -3.40590270      -3.42459172      -3.40871527
C       -3.76062745      -3.15613379      -2.07694354
C       -2.95655874      -2.34569235      -1.26946709
C       -4.24169288      -4.29194588      -4.23125922
C       -5.55424803      -4.71345933      -4.15378537
C       -5.75057466      -5.62670763      -5.21601664
C       -4.55135941      -5.70790757      -5.89368833
C       -4.13640051      -6.49063552      -7.02387189
N       -4.88017490      -7.46324074      -7.44623980
N       -4.43058825      -8.13135265      -8.54492849
C       -5.07224302      -9.24025257      -9.05042722
O       -4.67110864      -9.75904266     -10.09593686
C       -6.23962788      -9.80731570      -8.26215457
C       -7.58775967      -9.24063235      -8.67112793
C       -8.05624721      -8.13237282      -7.94693075
C       -9.27784444      -7.54714243      -8.24279423
C      -10.06694316      -8.07259516      -9.26270321
Br     -11.72886657      -7.18429217      -9.56612884
C       -9.64499808      -9.19511338     -10.01850678
C      -10.42796078      -9.77074352     -11.04998502
C       -9.99337669     -10.87230878     -11.78328082
C       -8.75228705     -11.42482174     -11.51553782
C       -7.95572433     -10.88091148     -10.50722586
C       -8.37584650      -9.77729882      -9.72796735
O       -3.63887420      -4.87470510      -5.31295341
H       -0.51601879      -1.60874754      -3.52550102
H       -1.92660386      -3.03960241      -4.94317285
H       -4.65956278      -3.58963730      -1.64459008
H       -3.24634766      -2.16092050      -0.23811414
H       -6.28071144      -4.41208327      -3.41192952
H       -6.65392621      -6.16819705      -5.45659506
H       -3.16881396      -6.23741995      -7.49193960
H       -3.64274001      -7.78183258      -9.08181109
H       -6.07529122      -9.65244464      -7.18867541
H       -6.22716041     -10.89905708      -8.36284386
H       -7.46117794      -7.71770504      -7.13832661
H       -9.60668273      -6.68541695      -7.66842725
H      -11.40632788      -9.36528946     -11.29967393
H      -10.62228330     -11.29060796     -12.56450325
H       -8.39687161     -12.27682965     -12.08828793
H       -6.98337222     -11.34149212     -10.34788941
C       -1.79125088       1.79125088       1.79125088
C       -2.95828898       2.34528629       1.27125752
C       -3.76909875       3.14511148       2.08309205
C       -3.42025110       3.40155057       3.41740802
C       -2.23612942       2.83818310       3.91939226
C       -1.42553778       2.03396380       3.11221661
C       -4.26829267       4.21797694       4.27862837
C       -4.06057545       4.89963262       5.46128466
C       -5.31198747       5.43501982       5.84629164
C       -6.21711247       5.06191479       4.87392805
C       -7.63039862       5.27918641       4.74132290
N       -8.31294173       5.73212941       5.74458429
N       -9.64028982       5.94352733       5.52305222
C      -10.50320327       6.33854323       6.52117630
O      -11.67931527       6.59647407       6.25029881
C       -9.96779956       6.40053736       7.94076124
C       -9.41242203       7.76000496       8.32709296
C       -8.03428371       7.95789796       8.14336911
C       -7.43339654       9.16379687       8.47058770
C       -8.20016823      10.19485457       9.00721872
Br      -7.25522490      11.79998742       9.42407525
C       -9.59335382      10.04429471       9.22096970
C      -10.40336937      11.06226444       9.78305551
C      -11.77179552      10.89524899       9.98192177
C      -12.37606182       9.70604994       9.61053485
C      -11.60717790       8.68391691       9.05276686
C      -10.21160443       8.81130394       8.85820430
O       -5.57842622       4.34446169       3.90364480
H       -3.24913226       2.16075404       0.24038106
H       -4.67796666       3.56931328       1.66209917
H       -1.93801616       3.00356131       4.95221270
H       -0.51893974       1.60001213       3.52643043
H       -3.12332291       4.98853311       5.99286822
H       -5.53251492       6.01655816       6.72964525
H       -8.09552459       5.03184654       3.77080239
H      -10.02703099       5.89389300       4.58545970
H       -9.20448966       5.62614821       8.08577340
H      -10.76778367       6.09553884       8.62573886
H       -7.41747333       7.16014997       7.73958628
H       -6.36613591       9.28655492       8.30783611
H       -9.97282599      12.01547567      10.08298961
H      -12.36152066      11.69603621      10.41983763
H      -13.44461802       9.56775712       9.74961405
H      -12.13267116       7.77664958       8.76343300
C        1.79125088      -1.79125088       1.79125088
C        3.01194869      -2.25527255       1.30761154
C        3.82210829      -3.05518436       2.12000963
C        3.41938080      -3.40144855       3.41838033
C        2.18206866      -2.92802269       3.88361343
C        1.37164739      -2.12397123       3.07609957
C        4.26502363      -4.21868046       4.28119390
C        4.03397266      -4.97344105       5.41407902
C        5.29112576      -5.46372828       5.83844490
C        6.22355783      -4.99212342       4.93727406
C        7.65152259      -5.12869564       4.87068969
N        8.30504231      -5.59972431       5.88488881
N        9.65157689      -5.73003517       5.72525732
C       10.48207470      -6.13371927       6.74712884
O       11.68287337      -6.31554754       6.52766724
C        9.87834521      -6.30034201       8.13041094
C        9.37853298      -7.70563343       8.41535354
C        8.02450489      -7.96404460       8.14700128
C        7.47400845      -9.21533147       8.37844118
C        8.26701896     -10.23313141       8.90209116
Br       7.39052112     -11.90514554       9.18362092
C        9.63707750     -10.02277715       9.19876358
C       10.47118595     -11.02668019       9.75082318
C       11.81642740     -10.80038397      10.03215491
C       12.37347916      -9.56317397       9.75599348
C       11.57993763      -8.55323314       9.21069090
C       10.20524836      -8.74164629       8.93421802
O        5.59768755      -4.25686021       3.97198495
H        3.34509788      -2.00020450       0.30496498
H        4.77319672      -3.40843379       1.72774861
H        1.84052812      -3.16447116       4.88879088
H        0.42264184      -1.76051367       3.46222679
H        3.07677820      -5.13932847       5.88861757
H        5.49710493      -6.08029466       6.70131874
H        8.15193672      -4.80529155       3.94094525
H       10.08287951      -5.60961322       4.81389096
H        9.06759424      -5.57537679       8.27344024
H       10.62417296      -5.99219683       8.87269157
H        7.38687049      -7.17838943       7.75194967
H        6.42481674      -9.38392866       8.15178155
H       10.07822059     -12.01572229       9.97734839
H       12.42545790     -11.59232260      10.45961401
H       13.42433875      -9.37773162       9.95991881
H       12.06953761      -7.60568598       8.99753016
C       -0.00445707       0.01189536      -1.78238275
H       -0.66409135       0.67374010      -2.43557963
H        0.65740317      -0.63156657      -2.45157240
C       -0.90989263      -0.90692880      -0.91072765
C        0.90977584       0.90977584      -0.90977584
C       -0.00465871       1.77757030       0.00794375
H       -0.66225468       2.44313916      -0.64384735
H        0.64322798       2.43503045       0.67728295
C       -1.78241447       0.00034974      -0.00472694
H       -2.45427497      -0.65498947       0.64260836
H       -2.43311707       0.67328779      -0.65473579
C       -0.91132561       0.90220522       0.91563759
C       -0.01476271      -0.02253852       1.78660255
H       -0.67934791      -0.69751639       2.42135241
H        0.63392994       0.61504881       2.47327442
C        0.01484550      -1.77751727      -0.01636693
H        0.67870853      -2.42144646      -0.68295456
H       -0.62264859      -2.45592969       0.64226336
C        1.78714474       0.01002794       0.00389507
H        2.44202412       0.67113390       0.66197326
H        2.45385902      -0.65136977      -0.64189061
C        0.91606151      -0.90478549       0.90901405
