142
Properties=species:S:1:pos:R:3 pbc="F F F"
C        1.78868072       1.78868072      -1.78868072
C        2.28480519       2.99357868      -1.31261194
N        3.05168473       3.83068169      -2.05013257
C        3.34722122       3.42665272      -3.31336021
C        2.93103326       2.22041053      -3.86449188
C        2.10913258       1.39858384      -3.08445653
C        3.26779283       1.79190574      -5.24287189
O        2.47160309       1.09237909      -5.86730551
N        4.48047381       2.13693916      -5.81382228
N        5.46309476       2.79775742      -5.15232057
C        6.55214766       3.00107087      -5.81694708
C        7.67480630       3.76758240      -5.22949882
C        7.51976362       4.28546978      -3.93176610
C        8.54745427       5.03255425      -3.40039295
O        8.55298703       5.61451803      -2.17165119
C        9.84356716       6.25876529      -2.17747889
O       10.58321366       6.03946368      -3.39823127
C        9.70348975       5.27588853      -4.09916445
C        9.90283905       4.77910518      -5.36954413
C        8.87442312       4.01633461      -5.94442853
Br       9.19271929       3.36142307      -7.70135003
H        2.07341058       3.33769859      -0.30449215
H        3.93167661       4.14488558      -3.87973310
H        1.73272833       0.46324345      -3.49150147
H        4.64150318       1.77744508      -6.74803262
H        6.66051559       2.62247170      -6.84798781
H        6.61960841       4.11631916      -3.35185736
H       10.43183585       5.87435385      -1.33657103
H        9.69862474       7.33710811      -2.04349422
H       10.82706382       4.98811290      -5.89648432
C       -1.78868072      -1.78868072      -1.78868072
C       -2.18480587      -3.04694525      -1.35924468
N       -2.94586059      -3.88548824      -2.10115016
C       -3.34059285      -3.42831899      -3.31832231
C       -3.02877712      -2.16927599      -3.81788255
C       -2.20942478      -1.34504363      -3.03770453
C       -3.47301483      -1.68361423      -5.14594141
O       -2.75788873      -0.90212448      -5.77127447
N       -4.69642006      -2.06856913      -5.66624606
N       -5.59728589      -2.82498333      -4.99090353
C       -6.71135188      -3.05579645      -5.60301728
C       -7.75020554      -3.92181584      -4.99986614
C       -7.48682751      -4.50299185      -3.74718013
C       -8.43558222      -5.34064030      -3.20417894
O       -8.33274005      -5.99149403      -2.01492218
C       -9.58212258      -6.71183017      -1.98585859
O      -10.40620010      -6.46825738      -3.14645113
C       -9.61617776      -5.61345575      -3.84890923
C       -9.92082634      -5.05758261      -5.07307942
C       -8.97490310      -4.20175901      -5.65852416
Br      -9.43683096      -3.46761123      -7.35105020
H       -1.89291612      -3.43488884      -0.38779636
H       -3.91625941      -4.14712050      -3.89291538
H       -1.91290280      -0.36665438      -3.40791607
H       -4.93449859      -1.66648112      -6.56600117
H       -6.90395570      -2.62589618      -6.60112321
H       -6.56419764      -4.31287130      -3.21071599
H      -10.13913852      -6.41295292      -1.09066930
H       -9.36756325      -7.78524291      -1.92642092
H      -10.86192155      -5.29193106      -5.55780844
C       -1.78868072       1.78868072       1.78868072
C       -2.31275808       1.30117817       2.97705955
N       -3.11852936       2.02279065       3.79117899
C       -3.39086068       3.29551006       3.40086341
C       -2.88074447       3.88506185       2.25012934
C       -2.08148493       3.09576544       1.41492257
C       -3.18297605       5.27756509       1.84202933
O       -3.22844979       5.55772724       0.64511066
N       -3.37328399       6.26670384       2.79124742
N       -3.21821577       6.07055904       4.12439793
C       -3.38801639       7.11119371       4.87095551
C       -3.31062547       7.01461008       6.34665197
C       -3.06362970       5.75448957       6.91888023
C       -3.03162121       5.65657253       8.29220772
O       -2.82059055       4.51641322       9.00215248
C       -2.91441365       5.01175878      10.35363891
O       -3.16622505       6.43205374      10.42262982
C       -3.22967807       6.74719270       9.10167197
C       -3.46424199       8.00316830       8.58407808
C       -3.50772802       8.13960518       7.18785306
Br      -3.84359190       9.88934083       6.52255966
H       -2.10452659       0.29176455       3.31931018
H       -4.06982162       3.82322669       4.06324699
H       -1.69208944       3.50812428       0.48725953
H       -3.54572015       7.19624838       2.42501236
H       -3.61458392       8.09388644       4.42250474
H       -2.90593583       4.87088670       6.31096239
H       -1.97367882       4.79626987      10.87281204
H       -3.72875274       4.48539252      10.86508182
H       -3.61675270       8.84576806       9.24914028
C        1.78868072      -1.78868072       1.78868072
C        2.44756700      -1.25617385       2.88725496
N        3.26059227      -1.97769332       3.69421340
C        3.39912531      -3.29536233       3.39274651
C        2.74934496      -3.92749278       2.33909792
C        1.94627497      -3.14092784       1.50497013
C        2.90675746      -5.36806187       2.02775113
O        2.82906910      -5.74335322       0.85886537
N        3.09897844      -6.29285950       3.03939732
N        3.07276154      -5.98117500       4.35923620
C        3.22349224      -6.97116725       5.17550613
C        3.27872673      -6.75385116       6.63930962
C        3.17974067      -5.43668066       7.12057817
C        3.27151786      -5.22983800       8.47904560
O        3.21055162      -4.02415496       9.10444968
C        3.37931704      -4.41897491      10.48151939
O        3.52476237      -5.84576813      10.65037812
C        3.45173949      -6.26697557       9.35982767
C        3.54331143      -7.57472734       8.93344960
C        3.45800498      -7.82258600       7.55459527
Br       3.59931233      -9.64087885       7.01530121
H        2.34816140      -0.20922156       3.15821835
H        4.08845623      -3.82536935       4.04246972
H        1.44904036      -3.58987103       0.64856186
H        3.16701569      -7.25931510       2.74065010
H        3.33422518      -8.00138790       4.79536201
H        3.04052240      -4.59291500       6.45434752
H        2.50540888      -4.08508078      11.05227107
H        4.27241377      -3.92504739      10.88176592
H        3.68539652      -8.37287656       9.65338797
C       -0.00445707       0.01189536      -1.78238275
H       -0.66409135       0.67374010      -2.43557963
H        0.65740317      -0.63156657      -2.45157240
C       -0.90989263      -0.90692880      -0.91072765
C        0.90977584       0.90977584      -0.90977584
C       -0.00465871       1.77757030       0.00794375
H       -0.66225468       2.44313916      -0.64384735
H        0.64322798       2.43503045       0.67728295
C       -1.78241447       0.00034974      -0.00472694
H       -2.45427497      -0.65498947       0.64260836
H       -2.43311707       0.67328779      -0.65473579
C       -0.91132561       0.90220522       0.91563759
C       -0.01476271      -0.02253852       1.78660255
H       -0.67934791      -0.69751639       2.42135241
H        0.63392994       0.61504881       2.47327442
C        0.01484550      -1.77751727      -0.01636693
H        0.67870853      -2.42144646      -0.68295456
H       -0.62264859      -2.45592969       0.64226336
C        1.78714474       0.01002794       0.00389507
H        2.44202412       0.67113390       0.66197326
H        2.45385902      -0.65136977      -0.64189061
C        0.91606151      -0.90478549       0.90901405
