129
Properties=species:S:1:pos:R:3 pbc="F F F"
C        0.00000000       0.00000000       0.00000000
C        0.87877670       0.87877670      -0.87877670
C        1.37490117       2.08367465      -0.40270791
N        2.14178070       2.92077767      -1.14022855
C        2.43731719       2.51674870      -2.40345618
C        2.02112924       1.31050650      -2.95458786
C        1.19922855       0.48867981      -2.17455251
C        2.35788881       0.88200172      -4.33296787
O        1.56169907       0.18247506      -4.95740149
N        3.57056979       1.22703514      -4.90391826
N        4.55319073       1.88785339      -4.24241654
C        5.64224364       2.09116685      -4.90704305
C        6.76490227       2.85767837      -4.31959479
C        6.60985959       3.37556575      -3.02186208
C        7.63755024       4.12265022      -2.49048892
O        7.64308301       4.70461401      -1.26174717
C        8.93366314       5.34886126      -1.26757487
O        9.67330964       5.12955966      -2.48832724
C        8.79358573       4.36598451      -3.18926043
C        8.99293503       3.86920116      -4.45964011
C        7.96451910       3.10643058      -5.03452451
H        1.16350655       2.42779457       0.60541188
H        3.02177259       3.23498156      -2.96982908
H        0.82282431      -0.44666057      -2.58159745
H        3.73159916       0.86754106      -5.83812859
H        5.75061156       1.71256768      -5.93808378
H        5.70970438       3.20641514      -2.44195333
H        9.52193183       4.96444982      -0.42666701
H        8.78872072       6.42720409      -1.13359020
H        9.91715980       4.07820888      -4.98658030
C        8.20552072       2.61055675      -6.36479792
C        8.40735958       2.19526241      -7.47890190
Br       8.73371594       1.52376658      -9.28031382
C       -0.87877670      -0.87877670      -0.87877670
C       -0.48865181      -2.17011515      -1.20251678
N       -1.21249485      -2.99346154      -1.99683054
C       -2.38820134      -2.50140571      -2.46791502
C       -2.88209760      -1.23759738      -2.16652862
C       -2.08816280      -0.40179093      -1.37250715
C       -4.17035460      -0.71844885      -2.68405494
O       -4.29175213       0.48702054      -2.89684403
N       -5.24319658      -1.56827387      -2.89005273
N       -5.23384762      -2.88501313      -2.56459992
C       -6.33437848      -3.52674967      -2.77932539
C       -6.43239913      -4.98269086      -2.52708545
C       -5.28906312      -5.65586708      -2.06235723
C       -5.36792095      -7.01670855      -1.86605990
O       -4.35609433      -7.81684084      -1.43650901
C       -5.00314974      -9.10602094      -1.44092858
O       -6.38410240      -9.04784529      -1.85924885
C       -6.52246681      -7.71845073      -2.10791312
C       -7.66993296      -7.09804364      -2.55379970
C       -7.62491263      -5.71178642      -2.76877514
H        0.44059103      -2.59356778      -0.83291249
H       -2.91597505      -3.18081635      -3.12979182
H       -2.42187117       0.60730978      -1.14319979
H       -6.09466930      -1.12556410      -3.21703541
H       -7.22195247      -3.00385478      -3.17545576
H       -4.35935450      -5.13489537      -1.86382298
H       -4.96011509      -9.52409295      -0.42884062
H       -4.45777628      -9.77059789      -2.12114083
H       -8.56694213      -7.67925866      -2.73574818
C       -8.83980782      -5.09986768      -3.24119988
C       -9.85728255      -4.58738575      -3.63685560
Br     -11.50245312      -3.75874579      -4.27659743
C       -0.87877670       0.87877670       0.87877670
C       -1.55366741       0.34208223       1.96553409
N       -2.36752821       1.06366993       2.77158878
C       -2.49017368       2.38553076       2.48181763
C       -1.82385708       3.02148952       1.44087700
C       -1.02031862       2.23522692       0.60691533
C       -1.96407983       4.46652182       1.14225675
O       -1.87117446       4.85244791      -0.02204675
N       -2.15722997       5.38322962       2.16106360
N       -2.14710951       5.05840010       3.47795106
C       -2.29620451       6.04179815       4.30245088
C       -2.36802684       5.81072404       5.76342456
C       -2.28669659       4.48799294       6.23259789
C       -2.39391458       4.26878321       7.58799160
O       -2.35093390       3.05649401       8.20201627
C       -2.52942858       3.43946751       9.58120317
O       -2.66256592       4.86590767       9.76272295
C       -2.57267386       5.29898215       8.47717466
C       -2.64722534       6.61168499       8.06286596
C       -2.54587462       6.87217021       6.68742937
H       -1.46719488      -0.70840287       2.22709723
H       -3.18067232       2.91594080       3.12997010
H       -0.51027499       2.68759350      -0.24010731
H       -2.21285035       6.35318771       1.87123075
H       -2.39308802       7.07673363       3.93144137
H       -2.14916472       3.64945282       5.55945531
H       -1.66451311       3.09138358      10.15715197
H       -3.43122812       2.95049723       9.96778966
H       -2.78860094       7.40411583       8.78923221
C       -2.63534836       8.25383185       6.29169517
C       -2.71028262       9.41097348       5.96026779
Br      -2.83144499      11.28197362       5.42437773
C        0.87877670      -0.87877670       0.87877670
C        2.25598797      -0.71248697       0.89280879
N        3.09420381      -1.47508856       1.63349456
C        2.51816293      -2.43188053       2.40747861
C        1.14757984      -2.64745885       2.49118490
C        0.31576911      -1.86393925       1.68275251
C        0.53494865      -3.69204499       3.34586475
O       -0.51125765      -4.22857592       2.98425735
N        1.10563101      -4.03727672       4.55861546
N        2.18526138      -3.40988230       5.08831699
C        2.56394925      -3.82475338       6.25175090
C        3.76787691      -3.26587829       6.90842024
C        4.50171590      -2.28066521       6.22490631
C        5.64388821      -1.78954238       6.81725881
O        6.47171719      -0.84990965       6.28781734
C        7.47632103      -0.75519167       7.31858656
O        7.22271114      -1.62672757       8.44175784
C        6.07268240      -2.23262497       8.04352329
C        5.37897047      -3.18901553       8.75379030
C        4.21182272      -3.71512356       8.17852791
H        2.74344382       0.04992576       0.29237118
H        3.22949561      -3.04286189       2.95422572
H       -0.75945642      -2.02528740       1.69193019
H        0.60548026      -4.73902443       5.09276412
H        2.00625291      -4.62161428       6.77339584
H        4.19498619      -1.90939743       5.25368923
H        7.51403314       0.27928497       7.67830049
H        8.44954771      -1.01434123       6.88562607
H        5.74259501      -3.51885572       9.72049824
C        3.51808681      -4.71675499       8.94603359
C        2.93708298      -5.55562131       9.58881960
Br       1.99764894      -6.91199720      10.62815020
