158
Properties=species:S:1:pos:R:3 pbc="F F F"
C        1.79156205       1.79156205      -1.79156205
C        1.21170394       2.78080959      -2.58128000
C        2.01851361       3.58472150      -3.39111872
C        3.41302855       3.40792636      -3.41813011
C        3.97375580       2.39216911      -2.62233885
C        3.16878728       1.59274480      -1.80785559
C        4.26733580       4.26593777      -4.33867852
H        3.75096752       5.20706885      -4.55051799
S        4.45913491       3.40365435      -5.94368849
C        6.19665648       3.04911055      -5.66400301
C        6.66003458       4.24169129      -4.84936236
N        5.63341996       4.51394310      -3.80660761
S        5.85165218       6.00814215      -3.02892739
O        7.22001340       6.06258502      -2.56064708
O        5.32111552       7.03474584      -3.90143058
C        4.81485658       5.89262121      -1.59551532
C        5.15574469       4.98381491      -0.58808890
C        4.34659530       4.87608914       0.54302258
C        3.21927805       5.68901633       0.66601357
Br       2.12234415       5.53963298       2.19798372
C        2.89552307       6.61559406      -0.32743688
C        3.69743616       6.72148870      -1.46527356
H        0.13456147       2.92801384      -2.58179806
H        1.54650612       4.34209060      -4.01511711
H        5.04751825       2.21516496      -2.63314135
H        3.62513159       0.81646314      -1.19932388
H        6.28611856       2.11799418      -5.09535562
H        6.74851217       2.94767068      -6.60210192
H        7.62013853       4.01301747      -4.37550984
H        6.79312307       5.11782770      -5.49596787
H        6.03906910       4.35700814      -0.68575384
H        4.60119387       4.15996342       1.32024375
H        2.02492251       7.25820416      -0.22226954
H        3.44715392       7.44895665      -2.23372988
C       -1.79156205      -1.79156205      -1.79156205
C       -3.16734894      -1.82590722      -1.58053738
C       -3.97336102      -2.63605400      -2.38493881
C       -3.41150685      -3.41871788      -3.40886030
C       -2.01726381      -3.37803879      -3.59296116
C       -1.21193831      -2.56369341      -2.79375594
C       -4.30232980      -4.32516200      -4.24446029
H       -5.32711937      -3.94172539      -4.23970961
S       -4.36163557      -5.98134785      -3.46349433
C       -3.39494025      -6.74617294      -4.76865686
C       -3.79790501      -5.95486709      -5.99831613
N       -3.80799500      -4.51168259      -5.63429309
S       -4.54848133      -3.53228040      -6.80795999
O       -3.93002249      -3.83141433      -8.08180868
O       -5.98090585      -3.64658491      -6.62980118
C       -4.05201225      -1.89016586      -6.36081501
C       -2.70497048      -1.53470659      -6.48797143
C       -2.29708321      -0.24860661      -6.13397204
C       -3.23905951       0.67365421      -5.67687551
Br      -2.68413906       2.41497842      -5.19483277
C       -4.58799830       0.32628592      -5.57684163
C       -5.00006575      -0.96212962      -5.92200306
H       -3.62072147      -1.23526002      -0.78839188
H       -5.04520251      -2.66373685      -2.19477447
H       -1.54670017      -3.98534111      -4.36378327
H       -0.13757976      -2.54639953      -2.95693932
H       -2.33021505      -6.62333328      -4.54592002
H       -3.61679411      -7.81173588      -4.86975478
H       -3.07572570      -6.13080070      -6.80213944
H       -4.78871800      -6.27017436      -6.34802628
H       -1.97571120      -2.25523603      -6.85088385
H       -1.24840167       0.02521934      -6.21773122
H       -5.32221879       1.05131942      -5.23449685
H       -6.05209301      -1.22756562      -5.85018181
C       -1.79156205       1.79156205       1.79156205
C       -3.10979342       2.04318438       1.42081574
C       -3.91507518       2.85345625       2.22582240
C       -3.41025585       3.41891616       3.40991302
C       -2.07090427       3.16178448       3.75557501
C       -1.26753587       2.34684760       2.95500419
C       -4.29145939       4.33183965       4.24865306
H       -5.34465953       4.09871701       4.06517782
S       -4.03824347       6.06300839       3.70522590
C       -3.17705994       6.52003836       5.21267176
C       -3.84143419       5.64841664       6.26123739
N       -3.97694754       4.27620642       5.70081671
S       -4.98815756       3.27372231       6.62684184
O       -4.52171837       3.32559561       7.99593152
O       -6.35685678       3.60780489       6.29263027
C       -4.63862315       1.64547632       6.01889364
C       -3.37618289       1.09258272       6.25888289
C       -3.08317538      -0.18485152       5.78133800
C       -4.05771550      -0.90370496       5.08827027
Br      -3.65800057      -2.63333200       4.43932485
C       -5.32679556      -0.36181254       4.87357100
C       -5.62239370       0.91956103       5.34224370
H       -3.51690122       1.62292746       0.50454470
H       -4.93836702       3.05354732       1.91179949
H       -1.64189095       3.59861382       4.65531978
H       -0.23673382       2.15991190       3.24427289
H       -2.11474695       6.27791146       5.10680994
H       -3.27891628       7.58570906       5.43365943
H       -3.22251505       5.62220658       7.16394423
H       -4.82531775       6.05382747       6.52777342
H       -2.62217640       1.65441998       6.80523470
H       -2.09787529      -0.61056974       5.95360799
H       -6.08909918      -0.92989726       4.34619429
H       -6.61367371       1.33604278       5.18012395
C        1.79156205      -1.79156205       1.79156205
C        1.23156562      -2.86819446       2.47403345
C        2.03798035      -3.67232805       3.28404543
C        3.41234811      -3.40830070       3.41843621
C        3.95186354      -2.30609139       2.73030884
C        3.14789037      -1.50598661       1.91551068
C        4.26264111      -4.27086068       4.33845031
H        3.79978200      -5.25567392       4.45309844
S        4.29070924      -3.51067357       6.00509494
C        6.01407136      -3.02644600       5.86925269
C        6.61007723      -4.12769691       5.01331408
N        5.67401587      -4.39304105       3.88691375
S        6.04437379      -5.81291241       3.03143552
O        7.44056428      -5.74664340       2.65603782
O        5.53071732      -6.92926055       3.79731407
C        5.09663262      -5.66594756       1.54041294
C        5.43830126      -4.66979648       0.61955076
C        4.69824319      -4.53675265      -0.55533398
C        3.63990704      -5.41023711      -0.80786334
Br       2.63631473      -5.22664487      -2.39896619
C        3.31742064      -6.42201284       0.09912054
C        4.04971503      -6.55416361       1.28031979
H        0.16934058      -3.08420413       2.39082866
H        1.58005449      -4.49974443       3.82391491
H        5.00794029      -2.06141280       2.82647147
H        3.58792267      -0.66181753       1.39117841
H        6.07561706      -2.05452888       5.36932242
H        6.49600933      -2.95453946       6.84773598
H        7.58067985      -3.80550440       4.62248159
H        6.76127536      -5.03590760       5.60973568
H        6.26819232      -3.99558302       0.81805574
H        4.95244840      -3.75384905      -1.26538390
H        2.50176932      -7.11062197      -0.10699508
H        3.80115349      -7.34747658       1.98121038
C       -0.00445707       0.01189536      -1.78238275
H       -0.66409135       0.67374010      -2.43557963
H        0.65740317      -0.63156657      -2.45157240
C       -0.90989263      -0.90692880      -0.91072765
C        0.90977584       0.90977584      -0.90977584
C       -0.00465871       1.77757030       0.00794375
H       -0.66225468       2.44313916      -0.64384735
H        0.64322798       2.43503045       0.67728295
C       -1.78241447       0.00034974      -0.00472694
H       -2.45427497      -0.65498947       0.64260836
H       -2.43311707       0.67328779      -0.65473579
C       -0.91132561       0.90220522       0.91563759
C       -0.01476271      -0.02253852       1.78660255
H       -0.67934791      -0.69751639       2.42135241
H        0.63392994       0.61504881       2.47327442
C        0.01484550      -1.77751727      -0.01636693
H        0.67870853      -2.42144646      -0.68295456
H       -0.62264859      -2.45592969       0.64226336
C        1.78714474       0.01002794       0.00389507
H        2.44202412       0.67113390       0.66197326
H        2.45385902      -0.65136977      -0.64189061
C        0.91606151      -0.90478549       0.90901405
