137
Properties=species:S:1:pos:R:3 pbc="F F F"
C        0.00000000       0.00000000       0.00000000
C        0.88165802       0.88165802      -0.88165802
C        0.30179992       1.87090557      -1.67137598
C        1.10860958       2.67481748      -2.48121470
C        2.50312453       2.49802233      -2.50822609
C        3.06385177       1.48226509      -1.71243483
C        2.25888325       0.68284077      -0.89795156
C        3.35743178       3.35603375      -3.42877450
H        2.84106350       4.29716482      -3.64061397
S        3.54923089       2.49375033      -5.03378446
C        5.28675246       2.13920653      -4.75409899
C        5.75013056       3.33178726      -3.93945833
N        4.72351594       3.60403907      -2.89670359
S        4.94174815       5.09823813      -2.11902336
O        6.31010938       5.15268099      -1.65074306
O        4.41121150       6.12484182      -2.99152655
C        3.90495256       4.98271718      -0.68561130
C        4.24584067       4.07391088       0.32181512
C        3.43669128       3.96618511       1.45292661
C        2.30937402       4.77911231       1.57591760
Br       1.21244013       4.62972896       3.10788775
C        1.98561905       5.70569003       0.58246714
C        2.78753214       5.81158468      -0.55536954
H       -0.77534255       2.01810981      -1.67189404
H        0.63660210       3.43218658      -3.10521308
H        4.13761422       1.30526093      -1.72323732
H        2.71522757      -0.09344089      -0.28941986
H        5.37621453       1.20809015      -4.18545160
H        5.83860814       2.03776666      -5.69219789
H        6.71023451       3.10311345      -3.46560582
H        5.88321905       4.20792367      -4.58606384
H        5.12916508       3.44710411       0.22415018
H        3.69128985       3.25005939       2.23014777
H        1.11501849       6.34830013       0.68763448
H        2.53724989       6.53905262      -1.32382586
C       -0.88165802      -0.88165802      -0.88165802
C       -0.79956747      -0.77692901      -2.26758499
C       -1.60956474      -1.58103987      -3.07403715
C       -2.50856579      -2.49844860      -2.50235857
C       -2.58359116      -2.57542328      -1.09953725
C       -1.76977580      -1.77683706      -0.29306273
C       -3.41060258      -3.33323098      -3.39840647
H       -2.95468794      -3.43644027      -4.38771408
S       -4.99197721      -2.44128908      -3.64349939
C       -5.92458256      -3.60797125      -2.64750417
C       -5.20473078      -4.91949647      -2.89714891
N       -3.74057752      -4.66296233      -2.82071875
S       -2.80485458      -5.95884372      -3.39531134
O       -3.24672964      -7.15538216      -2.71142163
O       -2.80073153      -5.88542538      -4.84142296
C       -1.17312887      -5.59447170      -2.80568047
C       -0.92729400      -5.64133777      -1.42930466
C        0.34958504      -5.35069765      -0.94883718
C        1.37062029      -5.03672672      -1.84646231
Br       3.09948147      -4.64027745      -1.19348536
C        1.13084689      -5.01756347      -3.22212537
C       -0.14734035      -5.29957503      -3.70757098
H       -0.11747694      -0.06757153      -2.72961283
H       -1.54451574      -1.47376763      -4.15571839
H       -3.28182071      -3.26102723      -0.62326454
H       -1.84322716      -1.85633220       0.78835283
H       -5.86221373      -3.31215137      -1.59539117
H       -6.97589239      -3.64859251      -2.94408779
H       -5.49487265      -5.64951019      -2.13457093
H       -5.47375710      -5.32183298      -3.88161649
H       -1.72496208      -5.89292003      -0.73423690
H        0.53927534      -5.37182671       0.12134990
H        1.93174470      -4.78714605      -3.92028278
H       -0.32937949      -5.29118569      -4.77956319
C       -0.88165802       0.88165802       0.88165802
C       -0.40564433       2.11221742       1.32621972
C       -1.21124806       2.91693673       2.13645696
C       -2.50104350       2.49939170       2.50893775
C       -2.95388046       1.24558337       2.05908786
C       -2.15189782       0.44377580       1.24400196
C       -3.34409970       3.37217701       3.42596332
H       -3.02343737       4.41482960       3.34057532
S       -3.04042241       2.87378498       5.16255829
C       -4.67437018       2.15440684       5.35128097
C       -5.53531864       3.02753635       4.45852116
N       -4.80445930       3.24032527       3.17947402
S       -5.49204985       4.45517033       2.21178947
O       -6.89931385       4.15204050       2.06217908
O       -5.05655453       5.73114405       2.73988129
C       -4.73530723       4.21064229       0.62733152
C       -5.04047822       3.05158917      -0.09413097
C       -4.44819846       2.84113509      -1.33938376
C       -3.57503547       3.79708264      -1.85954938
Br      -2.77108799       3.50890170      -3.54570835
C       -3.29281755       4.96686666      -1.15084227
C       -3.87653217       5.17840472       0.09954947
H        0.59211283       2.44974292       1.05703120
H       -0.81641259       3.86854660       2.48904257
H       -3.93961941       0.88270749       2.34378558
H       -2.52465777      -0.51958920       0.90613796
H       -4.65383386       1.11879303       4.99712939
H       -5.00847752       2.16811801       6.39197717
H       -6.48906413       2.52669085       4.26319880
H       -5.74222210       3.98750200       4.94748247
H       -5.72671402       2.31257132       0.31283367
H       -4.67222325       1.93412173      -1.89514351
H       -2.62369023       5.71699578      -1.56500187
H       -3.66079433       6.09350937       0.64582466
C        0.88165802      -0.88165802       0.88165802
C        1.34254645      -0.39824220       2.10329282
C        2.15277476      -1.20389892       2.90796808
C        2.50892115      -2.50113515       2.49931666
C        2.04274219      -2.96154694       1.25426255
C        1.22765918      -2.15943663       0.45257978
C        3.42622582      -3.34461950       3.37139470
H        3.35392642      -3.01323439       4.41168147
S        5.16076145      -3.06241685       2.85358738
C        5.32698604      -4.70488170       2.14819025
C        4.43450402      -5.54884981       3.03802232
N        3.16458157      -4.80373086       3.25594617
S        2.20211892      -5.47038167       4.48650905
O        2.03620336      -6.87896529       4.19836478
O        2.74658062      -5.02785120       5.75314805
C        0.62266245      -4.70080069       4.24981790
C       -0.11278654      -5.01004560       3.10067737
C       -1.35430774      -4.40784980       2.89640772
C       -1.85691627      -3.52065950       3.84882551
Br      -3.53803462      -2.70331577       3.56900019
C       -1.13433693      -3.23414069       5.00903818
C        0.11241475      -3.82781122       5.21426038
H        1.08613178       0.60522703       2.43375656
H        2.51823983      -0.80342634       3.85233559
H        2.31453534      -3.95338967       0.89818747
H        0.87701159      -2.53808924      -0.50389430
H        4.96310365      -4.69080559       1.11584703
H        6.36453646      -5.04883556       2.15520067
H        4.22529901      -6.50540009       2.54825468
H        4.93068122      -5.75129290       3.99523245
H        0.28049791      -5.70717104       2.36445006
H       -1.92087255      -4.63514877       1.99692525
H       -1.53487178      -2.55394714       5.75660878
H        0.66949475      -3.60863018       6.12200344
