166
Properties=species:S:1:pos:R:3 pbc="F F F"
C        1.79156205       1.79156205      -1.79156205
C        1.21170394       2.78080959      -2.58128000
C        2.01851361       3.58472150      -3.39111872
C        3.41302855       3.40792636      -3.41813011
C        3.97375580       2.39216911      -2.62233885
C        3.16878728       1.59274480      -1.80785559
C        4.26733580       4.26593777      -4.33867852
H        3.75096752       5.20706885      -4.55051799
S        4.45913491       3.40365435      -5.94368849
C        6.19665648       3.04911055      -5.66400301
C        6.66003458       4.24169129      -4.84936236
N        5.63341996       4.51394310      -3.80660761
S        5.85165218       6.00814215      -3.02892739
O        7.22001340       6.06258502      -2.56064708
O        5.32111552       7.03474584      -3.90143058
C        4.81485658       5.89262121      -1.59551532
C        5.15574469       4.98381491      -0.58808890
C        4.34659530       4.87608914       0.54302258
C        3.21927805       5.68901633       0.66601357
C        2.89552307       6.61559406      -0.32743688
C        3.69743616       6.72148870      -1.46527356
H        0.13456147       2.92801384      -2.58179806
H        1.54650612       4.34209060      -4.01511711
H        5.04751825       2.21516496      -2.63314135
H        3.62513159       0.81646314      -1.19932388
H        6.28611856       2.11799418      -5.09535562
H        6.74851217       2.94767068      -6.60210192
H        7.62013853       4.01301747      -4.37550984
H        6.79312307       5.11782770      -5.49596787
H        6.03906910       4.35700814      -0.68575384
H        4.60119387       4.15996342       1.32024375
H        2.02492251       7.25820416      -0.22226954
H        3.44715392       7.44895665      -2.23372988
C        2.38356707       5.57520701       1.83316164
C        1.68365913       5.47989170       2.81064814
Br       0.55196719       5.32577491       4.39116114
C       -1.79156205      -1.79156205      -1.79156205
C       -1.21184147      -2.78174843      -2.58020363
C       -2.01864707      -3.58566242      -3.39004434
C       -3.41302155      -3.40792986      -3.41813361
C       -3.97359726      -2.39124274      -2.62342377
C       -3.16863906      -1.59181189      -1.80893671
C       -4.26728593      -4.26598672      -4.33867945
H       -3.75141831      -5.20761668      -4.54951937
S       -4.45739306      -3.40467330      -5.94441139
C       -6.19486232      -3.04874662      -5.66616111
C       -6.65961685      -4.24045024      -4.85102114
N       -5.63390436      -4.51269037      -3.80737595
S       -5.85369469      -6.00620559      -3.02882143
O       -7.22241367      -6.05938907      -2.56144277
O       -5.32326442      -7.03377108      -3.90025644
C       -4.81780304      -5.89041212      -1.59477796
C       -5.15875816      -4.98068142      -0.58820892
C       -4.35031070      -4.87273444       0.54338328
C       -3.22363599      -5.68634972       0.66770491
C       -2.89983576      -6.61383051      -0.32488774
C       -3.70104106      -6.71995594      -1.46320143
H       -0.13480014      -2.92969141      -2.57988182
H       -1.54673160      -4.34378284      -4.01319939
H       -5.04723037      -2.21350994      -2.63508424
H       -3.62486779      -0.81480027      -1.20125055
H       -6.28407542      -2.11717923      -5.09821370
H       -6.74600503      -2.94757203      -6.60470771
H       -7.61988832      -4.01079324      -4.37798429
H       -6.79286305      -5.11693859      -5.49711700
H       -6.04158519      -4.35333636      -0.68690952
H       -4.60495070      -4.15590131       1.31993847
H       -2.02974856      -7.25696501      -0.21868264
H       -3.45073117      -7.44812231      -2.23098695
C       -2.38864749      -5.57231268       1.83534773
C       -1.68934462      -5.47680666       2.81324859
Br      -0.55863102      -5.32238150       4.39443157
C       -1.79156205       1.79156205       1.79156205
C       -1.76881112       3.17434420       1.63063822
C       -2.57274158       3.98111789       2.44049436
C       -3.40803620       3.41281554       3.41823329
C       -3.40254553       2.01426131       3.57145692
C       -2.60432388       1.20696037       2.75810341
C       -4.24268329       4.31243487       4.31683394
H       -4.42487844       5.26792473       3.81575119
S       -3.28349449       4.69216943       5.83081383
C       -4.34187413       3.68950859       6.87838733
C       -5.70148754       3.82894840       6.22065229
N       -5.51881333       3.68460400       4.75055334
S       -6.89236697       4.13681240       3.85954234
O       -8.02385939       3.41637521       4.40301090
O       -6.90007245       5.58229716       3.77492233
C       -6.58239319       3.47713296       2.24346696
C       -6.56531280       2.08863390       2.07370179
C       -6.31619377       1.55369847       0.80976961
C       -6.10718772       2.40828868      -0.27319559
C       -6.15216952       3.79427507      -0.10789058
C       -6.39289414       4.33470284       1.15660144
H       -1.12337277       3.63442960       0.88657100
H       -2.52957843       5.06163925       2.31249615
H       -4.02265297       1.54212882       4.33104275
H       -2.61936291       0.12864048       2.89291522
H       -3.99151972       2.65265789       6.85529075
H       -4.34337252       4.04172882       7.91318343
H       -6.37146180       3.04624054       6.59096351
H       -6.14334940       4.80425625       6.45931298
H       -6.73521952       1.42683547       2.91977610
H       -6.28757025       0.47497538       0.67836792
H       -6.00370812       4.45785547      -0.95616737
H       -6.43472473       5.41412565       1.28099007
C       -5.84788224       1.85474870      -1.57701849
C       -5.63071390       1.39115896      -2.66897017
Br      -5.27957106       0.64157357      -4.43456368
C        1.79156205      -1.79156205       1.79156205
C        2.00686477      -3.12257388       1.44435489
C        2.81044127      -3.93021167       2.25370089
C        3.40740939      -3.41430495       3.41737068
C        3.16304611      -2.07046032       3.75475733
C        2.36544436      -1.26099188       2.94295142
C        4.24358954      -4.32251361       4.30584896
H        4.63852274      -5.15470798       3.71532364
S        3.16044315      -5.05962343       5.58641117
C        3.89848301      -4.09955569       6.91173135
C        5.33921950      -3.95023718       6.46163155
N        5.33587868      -3.60406082       5.01403117
S        6.87049924      -3.72249234       4.29573014
O        7.79202190      -2.95003334       5.10119026
O        7.11511979      -5.12267223       4.01949992
C        6.68178881      -2.86640160       2.75480271
C        6.47114446      -1.48352769       2.77297635
C        6.31404262      -0.79628784       1.56933140
C        6.38877485      -1.49157412       0.36193184
C        6.62692940      -2.86753611       0.34408851
C        6.77659934      -3.56136799       1.54623110
H        1.54731444      -3.54350858       0.55355035
H        2.95414431      -4.97334582       1.97622370
H        3.59383927      -1.64357106       4.65841422
H        2.19364771      -0.22486257       3.22240833
H        3.39687988      -3.12854947       6.97403901
H        3.81560914      -4.60557191       7.87710371
H        5.82273226      -3.15195232       7.03398127
H        5.89173004      -4.88235800       6.63283059
H        6.42015076      -0.94516950       3.71651082
H        6.13530358       0.27592144       1.58153140
H        6.69948246      -3.40440652      -0.59849277
H        6.96931523      -4.63138868       1.52913653
C        6.22417183      -0.78127279      -0.87983217
C        6.08631680      -0.18639542      -1.91980953
Br       5.86341688       0.77547096      -3.60136497
C       -0.00445707       0.01189536      -1.78238275
H       -0.66409135       0.67374010      -2.43557963
H        0.65740317      -0.63156657      -2.45157240
C       -0.90989263      -0.90692880      -0.91072765
C        0.90977584       0.90977584      -0.90977584
C       -0.00465871       1.77757030       0.00794375
H       -0.66225468       2.44313916      -0.64384735
H        0.64322798       2.43503045       0.67728295
C       -1.78241447       0.00034974      -0.00472694
H       -2.45427497      -0.65498947       0.64260836
H       -2.43311707       0.67328779      -0.65473579
C       -0.91132561       0.90220522       0.91563759
C       -0.01476271      -0.02253852       1.78660255
H       -0.67934791      -0.69751639       2.42135241
H        0.63392994       0.61504881       2.47327442
C        0.01484550      -1.77751727      -0.01636693
H        0.67870853      -2.42144646      -0.68295456
H       -0.62264859      -2.45592969       0.64226336
C        1.78714474       0.01002794       0.00389507
H        2.44202412       0.67113390       0.66197326
H        2.45385902      -0.65136977      -0.64189061
C        0.91606151      -0.90478549       0.90901405
