98
Properties=species:S:1:pos:R:3 pbc="F F F"
C        7.25296342       6.22509995      -6.25663830
O        6.58463801       5.48182768      -5.24097977
C        7.34015792       5.23370658      -4.13698199
O        8.49828686       5.60426763      -3.97992665
N        6.67558859       4.50094032      -3.17734293
N        5.38542694       4.08629637      -3.34288932
C        4.89044940       3.37413079      -2.38275727
C        3.54162319       2.89491089      -2.47177832
O        3.06488850       2.10918518      -1.46038939
C        1.77816697       1.77816697      -1.77816697
C        1.43937480       2.35415094      -2.97868752
Br      -0.17489765       2.26651968      -3.92569122
C        2.56347322       3.07218253      -3.43150357
H        6.57088890       6.32579383      -7.10545447
H        8.14934982       5.69687119      -6.59580630
H        7.50482059       7.22607645      -5.89379085
H        7.19659464       4.27950436      -2.33807259
H        5.46982800       3.10675727      -1.48150352
H        2.67212462       3.65116202      -4.33934631
C       -5.93549392      -6.72111685      -7.07809090
O       -5.04562045      -5.78356588      -6.47825914
C       -4.10966058      -5.27590530      -7.32528061
O       -4.00625022      -5.56361012      -8.51262081
N       -3.25308144      -4.38395998      -6.71683043
N       -3.36243935      -4.05610077      -5.39607250
C       -2.47275722      -3.23512323      -4.93945701
C       -2.51033192      -2.83536371      -3.56261676
O       -1.53012565      -2.00147548      -3.10286194
C       -1.77816697      -1.77816697      -1.77816697
C       -2.91002302      -2.46020527      -1.40198497
Br      -3.74658155      -2.54315980       0.27242810
C       -3.38679304      -3.14123924      -2.53912703
H       -6.60947319      -7.09185144      -6.30081257
H       -5.38215542      -7.57139051      -7.48848138
H       -6.53500470      -6.23570288      -7.85398031
H       -2.52980684      -3.98336520      -7.30099955
H       -1.66536280      -2.82278124      -5.56994476
H       -4.25511693      -3.78125675      -2.62625926
C       -7.18556729       6.01951184       6.52962255
O       -6.56952270       5.18779807       5.55012470
C       -7.44385728       4.50183767       4.76515153
O       -8.66523790       4.56732692       4.84991632
N       -6.82249144       3.69420568       3.83717473
N       -5.46333607       3.61700470       3.73427186
C       -5.00713680       2.79331004       2.84689061
C       -3.59145514       2.64710697       2.66975028
O       -3.14342182       1.73670088       1.75434037
C       -1.77816697       1.77816697       1.77816697
C       -1.36347065       2.71162647       2.69711614
Br       0.37588619       3.21853344       3.17466601
C       -2.51876104       3.27418829       3.27420999
H       -6.39404338       6.48324145       7.12485237
H       -7.81703546       5.42659198       7.19839988
H       -7.76573260       6.81178325       6.04717204
H       -7.42820489       3.15296972       3.23299698
H       -5.66839077       2.18012644       2.20957158
H       -2.58677076       4.03903741       4.03682478
C        5.94779910      -6.68462697       7.10227561
O        5.06876933      -5.73806248       6.50061366
C        4.17693134      -5.17426527       7.35964987
O        4.10292963      -5.42124944       8.55830207
N        3.32945954      -4.27460348       6.74980883
N        3.40635446      -3.99186553       5.41639264
C        2.52849268      -3.15728863       4.96155614
C        2.53411442      -2.80215996       3.57203801
O        1.56612191      -1.95186399       3.11647717
C        1.77816697      -1.77816697       1.77816697
C        2.87544063      -2.50777371       1.38899892
Br       3.65456215      -2.66993716      -0.30718605
C        3.36712663      -3.16797005       2.53206264
H        6.58444790      -7.10100821       6.31668109
H        5.38168962      -7.50337570       7.55696199
H        6.58689394      -6.19479678       7.84299718
H        2.63827005      -3.83283554       7.34306600
H        1.75512905      -2.69962528       5.60333447
H        4.21738913      -3.83262414       2.61261968
C       -0.00445707       0.01189536      -1.78238275
H       -0.66409135       0.67374010      -2.43557963
H        0.65740317      -0.63156657      -2.45157240
C       -0.90989263      -0.90692880      -0.91072765
C        0.90977584       0.90977584      -0.90977584
C       -0.00465871       1.77757030       0.00794375
H       -0.66225468       2.44313916      -0.64384735
H        0.64322798       2.43503045       0.67728295
C       -1.78241447       0.00034974      -0.00472694
H       -2.45427497      -0.65498947       0.64260836
H       -2.43311707       0.67328779      -0.65473579
C       -0.91132561       0.90220522       0.91563759
C       -0.01476271      -0.02253852       1.78660255
H       -0.67934791      -0.69751639       2.42135241
H        0.63392994       0.61504881       2.47327442
C        0.01484550      -1.77751727      -0.01636693
H        0.67870853      -2.42144646      -0.68295456
H       -0.62264859      -2.45592969       0.64226336
C        1.78714474       0.01002794       0.00389507
H        2.44202412       0.67113390       0.66197326
H        2.45385902      -0.65136977      -0.64189061
C        0.91606151      -0.90478549       0.90901405
