85
Properties=species:S:1:pos:R:3 pbc="F F F"
C        0.00000000       0.00000000       0.00000000
C        6.34305940       5.31519593      -5.34673428
O        5.67473399       4.57192366      -4.33107575
C        6.43025389       4.32380255      -3.22707797
O        7.58838284       4.69436361      -3.07002263
N        5.76568457       3.59103630      -2.26743891
N        4.47552291       3.17639235      -2.43298530
C        3.98054537       2.46422677      -1.47285324
C        2.63171917       1.98500686      -1.56187429
O        2.15498448       1.19928115      -0.55048537
C        0.86826295       0.86826295      -0.86826295
C        0.52947077       1.44424691      -2.06878349
C        1.65356920       2.16227850      -2.52159955
H        5.66098488       5.41588981      -6.19555045
H        7.23944580       4.78696717      -5.68590228
H        6.59491657       6.31617243      -4.98388682
H        6.28669061       3.36960033      -1.42816857
H        4.55992398       2.19685325      -0.57159950
H        1.76222060       2.74125799      -3.42944228
C       -0.71121794       1.37689576      -2.79662643
C       -1.75029473       1.32048917      -3.40619489
Br      -3.43039403       1.22928449      -4.39181554
C       -6.06085892      -4.99652951      -5.94760118
O       -5.46211251      -4.06721704      -5.04840385
C       -6.23310016      -2.98241440      -4.76561985
O       -7.35610428      -2.78176990      -5.21489489
N       -5.62495691      -2.09279890      -3.90640396
N       -4.37592555      -2.30938710      -3.39958791
C       -3.90489218      -1.37896924      -2.63376396
C       -2.59955476      -1.52195896      -2.05708660
O       -2.11516397      -0.50106896      -1.28851807
C       -0.86826295      -0.86826295      -0.86826295
C       -0.56642908      -2.11464796      -1.36142415
C       -1.67017841      -2.54221123      -2.12505760
H       -5.34026677      -5.79754613      -6.13461223
H       -6.29577173      -4.51482292      -6.90172060
H       -6.95846892      -5.43504753      -5.50145938
H       -6.15238381      -1.26149669      -3.67057902
H       -4.46837017      -0.45798318      -2.40202337
H       -1.79528465      -3.47047406      -2.66716217
C        0.62492921      -2.90370890      -1.18352456
C        1.62269177      -3.56454745      -1.03453365
Br       3.23598944      -4.63306748      -0.79362796
C       -5.99481138       4.99347306       6.01670517
O       -5.39264913       4.04493014       5.14015414
C       -6.10366491       2.89578757       4.98168194
O       -7.17887451       2.65461923       5.51927533
N       -5.49230651       1.99012544       4.14172782
N       -4.29643934       2.25132373       3.53713748
C       -3.81274790       1.30264024       2.80223724
C       -2.56025666       1.48938305       2.12896061
O       -2.05720948       0.45130285       1.39623866
C       -0.86826295       0.86826295       0.86826295
C       -0.62188374       2.16252679       1.25809064
C       -1.70095566       2.56966816       2.06682343
H       -5.32058222       5.85024752       6.10159539
H       -6.13398437       4.56452719       7.01380369
H       -6.94739163       5.34143594       5.60614826
H       -5.97529132       1.11228653       3.99688167
H       -4.32517924       0.33347550       2.66972199
H       -1.85453411       3.52308469       2.55530208
C        0.49831571       3.01259349       0.94802647
C        1.43648275       3.72452436       0.68834772
Br       2.95341950       4.87565635       0.26846915
C        6.34266883      -5.30578634       5.35653444
O        5.67690995      -4.55920822       4.34161524
C        6.44042501      -4.29344284       3.24726656
O        7.60346746      -4.65153161       3.09777001
N        5.77799284      -3.55786857       2.28829836
N        4.48242893      -3.15702920       2.44544243
C        3.98977440      -2.44044689       1.48740410
C        2.63565829      -1.97486175       1.56808028
O        2.16102763      -1.18406474       0.55965862
C        0.86826295      -0.86826295       0.86826295
C        0.52365311      -1.45884531       2.06000276
C        1.65022048      -2.17051129       2.51671548
H        5.65359722      -5.42101018       6.19781773
H        7.23073243      -4.77237161       5.70921120
H        6.60747775      -6.30083274       4.98666533
H        6.30476876      -3.32352620       1.45616455
H        4.57506506      -2.15902850       0.59428316
H        1.75580744      -2.75707050       3.42004294
C       -0.72444219      -1.41016283       2.77658362
C       -1.76972201      -1.36939125       3.37672009
Br      -3.45985106      -1.30346705       4.34709001
