186
Properties=species:S:1:pos:R:3 pbc="F F F"
N        6.16531211       7.22130128      -6.92977272
C        5.39435176       6.14759940      -7.18472789
S        4.95281815       5.71976462      -8.72310925
N        5.00146223       5.44017909      -6.09509384
N        5.38461541       5.80533597      -4.74231548
C        4.87883376       5.00042528      -3.77862301
O        4.07999807       4.10669272      -4.19533774
C        3.39370389       3.41726867      -3.40914449
C        2.46879321       2.53986439      -3.97929806
C        1.66398359       1.72560920      -3.17847664
C        1.79119503       1.79119503      -1.79119503
C        2.71690552       2.65604279      -1.20117183
C        3.52581429       3.47585383      -2.01273521
C        4.46362694       4.35645214      -1.50408085
C        5.17512974       5.14631539      -2.40268519
C        6.14750439       6.10834877      -1.84647293
S        7.62822840       6.49439232      -2.64053070
C        8.05504852       7.53733594      -1.35635530
C        7.09080296       7.49187190      -0.37086388
N        6.02477687       6.64486728      -0.64317211
C        7.18381573       8.22196167       0.88883726
C        7.83187713       9.46393149       0.97490802
C        7.92976375      10.13341111       2.19934423
C        7.37748254       9.56474362       3.34457826
C        6.72010311       8.33889239       3.27600742
C        6.61996708       7.67338228       2.05012903
H        6.36342705       7.40581175      -5.95743818
H        6.49569611       7.82174069      -7.66708299
H        4.41866695       4.61801056      -6.21944874
H        2.39207259       2.50935647      -5.06208446
H        0.94696474       1.05205289      -3.64395230
H        2.80544757       2.69809778      -0.11604150
H        4.62831992       4.45230546      -0.43236837
H        8.98348092       8.08876801      -1.38046653
H        8.25821693       9.93487784       0.09235146
H        8.43571232      11.09453392       2.24577593
H        6.28517349       7.89194891       4.16600273
H        6.10676024       6.71496875       2.00729632
C        7.48638546      10.24985261       4.60646804
C        7.57759166      10.82363139       5.66330074
Br       7.72506436      11.75138314       7.37210982
N       -7.39441045      -6.54460046      -6.37737518
C       -6.76823374      -6.75418365      -5.20426167
S       -7.12925515      -8.04106200      -4.22537486
N       -5.82196407      -5.83796670      -4.87680438
N       -5.49622389      -4.70733986      -5.72870313
C       -4.54590175      -3.88295654      -5.22902376
O       -4.14940698      -4.17358652      -4.05903504
C       -3.42048536      -3.40075177      -3.39887992
C       -3.13410841      -3.77080298      -2.08304426
C       -2.32262762      -2.97207216      -1.27336965
C       -1.79119503      -1.79119503      -1.79119503
C       -2.05843353      -1.40752240      -3.10816421
C       -2.87794034      -2.21576458      -3.92069840
C       -3.18813071      -1.90379318      -5.23223604
C       -4.04289743      -2.75750176      -5.92373112
C       -4.39586756      -2.39539719      -7.31106134
S       -4.64470629      -3.57550058      -8.54294455
C       -4.92736211      -2.33650308      -9.68487457
C       -4.75844733      -1.10177258      -9.09331884
N       -4.41842683      -1.14656670      -7.74782273
C       -4.86868746       0.16332723      -9.81157992
C       -5.74320599       0.32036466     -10.89805926
C       -5.81316502       1.53604898     -11.58671459
C       -5.00978480       2.60259413     -11.19045723
C       -4.14493497       2.46900665     -10.10705976
C       -4.07964132       1.25404709      -9.41762610
H       -7.11326852      -5.72245444      -6.89095402
H       -8.12354142      -7.15695225      -6.70402611
H       -5.31210998      -5.93946345      -4.00455283
H       -3.56080335      -4.69583008      -1.70688010
H       -2.11579709      -3.27766608      -0.24950676
H       -1.63766384      -0.48199911      -3.49992391
H       -2.79890732      -1.00566584      -5.70842059
H       -5.16487731      -2.57713249     -10.71070566
H       -6.39073583      -0.49287584     -11.21713164
H       -6.49676903       1.63815396     -12.42585524
H       -3.51778929       3.29876570      -9.79209607
H       -3.39896048       1.15873173      -8.57420392
C       -5.07544217       3.85093171     -11.90525956
C       -5.13043022       4.89641444     -12.50390652
Br      -5.21934124       6.58687159     -13.47186802
N       -7.25022764       6.88802015       6.17813831
C       -6.21799045       7.15303047       5.35565813
S       -5.86925875       8.68784038       4.83859288
N       -5.48320960       6.07655397       4.97697158
N       -5.77902042       4.72713696       5.42610949
C       -4.95627011       3.77564290       4.92596905
O       -4.11126103       4.19413460       4.07663291
C       -3.41784949       3.40821526       3.39405230
C       -2.60012000       3.97424400       2.41359165
C       -1.78603873       3.17377940       1.60825131
C       -1.79119503       1.79119503       1.79119503
C       -2.59556251       1.20584167       2.77271596
C       -3.41546288       2.01698204       3.58195841
C       -4.23834342       1.51275080       4.57306571
C       -5.03556338       2.40805634       5.28051060
C       -5.93652512       1.85459239       6.31120859
S       -6.29681074       2.69176980       7.77457088
C       -7.27042956       1.38655106       8.29175914
C       -7.22270340       0.36578774       7.36504760
N       -6.42884633       0.62762165       6.25634828
C       -7.89775430      -0.91631291       7.53549876
C       -9.10947228      -1.02407579       8.23550410
C       -9.72522828      -2.26844200       8.40704435
C       -9.13288958      -3.41213443       7.87689276
C       -7.93692409      -3.32283631       7.16890031
C       -7.32527557      -2.07727256       6.99521732
H       -7.38798389       5.91800850       6.42068459
H       -7.86651387       7.61432759       6.50367833
H       -4.68966936       6.20901932       4.35743758
H       -2.61587886       5.05347136       2.29416330
H       -1.15967208       3.63576634       0.84753151
H       -2.59078505       0.12430271       2.90449910
H       -4.28489164       0.44558508       4.78251703
H       -7.78630169       1.42653952       9.23987425
H       -9.59858200      -0.14393490       8.64609620
H      -10.66357605      -2.33151442       8.95240869
H       -7.47181311      -4.21167011       6.75097667
H       -6.38976799      -2.01818776       6.44285245
C       -9.76233082      -4.69405694       8.06149614
C      -10.28948787      -5.76766703       8.21610147
Br     -11.14185622      -7.50360376       8.46608521
N        6.14598333      -7.14328310       7.02711967
C        5.50339231      -5.98023973       7.24304701
S        5.25594975      -5.37464454       8.76509773
N        5.06998812      -5.33814035       6.12860668
N        5.28350497      -5.85920582       4.78955608
C        4.75938794      -5.09805035       3.80044376
O        4.08898137      -4.09610604       4.19694112
C        3.39311288      -3.41567289       3.41133128
C        2.61142914      -2.40370710       3.97281941
C        1.80786043      -1.58917845       3.17103056
C        1.79119503      -1.79119503       1.79119503
C        2.57283785      -2.79257804       1.20870425
C        3.38103034      -3.61205355       2.02131944
C        4.18128120      -4.62293991       1.51993882
C        4.90421120      -5.39531659       2.42460252
C        5.72671742      -6.49458722       1.88102146
S        7.23791606      -6.95201477       2.57322059
C        7.44066655      -8.14296657       1.36510664
C        6.39189195      -8.09120334       0.47044345
N        5.43824294      -7.12216729       0.75240604
C        6.29429988      -8.93696912      -0.71432886
C        6.81665310     -10.23950129      -0.73525379
C        6.73280821     -11.02251505      -1.89149264
C        6.12350193     -10.50719366      -3.03304769
C        5.58874137      -9.22128699      -3.02704028
C        5.67014306      -8.44185600      -1.86877872
H        6.22985313      -7.43292786       6.06389599
H        6.49228153      -7.70480128       7.78743698
H        4.57843032      -4.45466405       6.22303189
H        2.64494857      -2.26875544       5.04980950
H        1.20359609      -0.80914051       3.63023332
H        2.54976705      -2.94035014       0.12946967
H        4.23017815      -4.83033837       0.45247723
H        8.31371147      -8.77890126       1.36010273
H        7.28399692     -10.66911748       0.14762890
H        7.14342579     -12.02913242      -1.88808790
H        5.10999706      -8.81527932      -3.91415671
H        5.25173391      -7.43753058      -1.87483181
C        6.04547788     -11.31014431      -4.22585216
C        5.98013273     -11.98261548      -5.22482591
Br       5.87447515     -13.06994448      -6.84008196
C       -0.00445707       0.01189536      -1.78238275
H       -0.66409135       0.67374010      -2.43557963
H        0.65740317      -0.63156657      -2.45157240
C       -0.90989263      -0.90692880      -0.91072765
C        0.90977584       0.90977584      -0.90977584
C       -0.00465871       1.77757030       0.00794375
H       -0.66225468       2.44313916      -0.64384735
H        0.64322798       2.43503045       0.67728295
C       -1.78241447       0.00034974      -0.00472694
H       -2.45427497      -0.65498947       0.64260836
H       -2.43311707       0.67328779      -0.65473579
C       -0.91132561       0.90220522       0.91563759
C       -0.01476271      -0.02253852       1.78660255
H       -0.67934791      -0.69751639       2.42135241
H        0.63392994       0.61504881       2.47327442
C        0.01484550      -1.77751727      -0.01636693
H        0.67870853      -2.42144646      -0.68295456
H       -0.62264859      -2.45592969       0.64226336
C        1.78714474       0.01002794       0.00389507
H        2.44202412       0.67113390       0.66197326
H        2.45385902      -0.65136977      -0.64189061
C        0.91606151      -0.90478549       0.90901405
