178
Properties=species:S:1:pos:R:3 pbc="F F F"
N        6.16531211       7.22130128      -6.92977272
C        5.39435176       6.14759940      -7.18472789
S        4.95281815       5.71976462      -8.72310925
N        5.00146223       5.44017909      -6.09509384
N        5.38461541       5.80533597      -4.74231548
C        4.87883376       5.00042528      -3.77862301
O        4.07999807       4.10669272      -4.19533774
C        3.39370389       3.41726867      -3.40914449
C        2.46879321       2.53986439      -3.97929806
C        1.66398359       1.72560920      -3.17847664
C        1.79119503       1.79119503      -1.79119503
C        2.71690552       2.65604279      -1.20117183
C        3.52581429       3.47585383      -2.01273521
C        4.46362694       4.35645214      -1.50408085
C        5.17512974       5.14631539      -2.40268519
C        6.14750439       6.10834877      -1.84647293
S        7.62822840       6.49439232      -2.64053070
C        8.05504852       7.53733594      -1.35635530
C        7.09080296       7.49187190      -0.37086388
N        6.02477687       6.64486728      -0.64317211
C        7.18381573       8.22196167       0.88883726
C        7.83187713       9.46393149       0.97490802
C        7.92976375      10.13341111       2.19934423
C        7.37748254       9.56474362       3.34457826
Br       7.52042749      10.46401126       5.00092297
C        6.72010311       8.33889239       3.27600742
C        6.61996708       7.67338228       2.05012903
H        6.36342705       7.40581175      -5.95743818
H        6.49569611       7.82174069      -7.66708299
H        4.41866695       4.61801056      -6.21944874
H        2.39207259       2.50935647      -5.06208446
H        0.94696474       1.05205289      -3.64395230
H        2.80544757       2.69809778      -0.11604150
H        4.62831992       4.45230546      -0.43236837
H        8.98348092       8.08876801      -1.38046653
H        8.25821693       9.93487784       0.09235146
H        8.43571232      11.09453392       2.24577593
H        6.28517349       7.89194891       4.16600273
H        6.10676024       6.71496875       2.00729632
N       -7.33451652      -6.73630588      -6.24556371
C       -6.46738586      -7.00717423      -5.25211895
S       -6.41921791      -8.48046586      -4.49600825
N       -5.63619682      -5.99006507      -4.91047326
N       -5.66866307      -4.69531446      -5.56828933
C       -4.78534544      -3.79409241      -5.07844420
O       -4.12798751      -4.18739698      -4.06664404
C       -3.41948437      -3.40487863      -3.39575405
C       -2.82759184      -3.91992808      -2.24043573
C       -2.01440235      -3.12049327      -1.43317381
C       -1.79119503      -1.79119503      -1.79119503
C       -2.36698723      -1.25907239      -2.94806052
C       -3.18696158      -2.06880476      -3.75863700
C       -3.79168617      -1.61526608      -4.91720769
C       -4.61497974      -2.49537253      -5.61377805
C       -5.28388512      -1.98937497      -6.82906601
S       -5.57287740      -2.98062714      -8.20964687
C       -6.26777380      -1.65209349      -9.02887247
C       -6.18904451      -0.52007676      -8.24441748
N       -5.59201435      -0.71478080      -7.00602112
C       -6.63920396       0.79872100      -8.67645719
C       -7.72136945       0.95662245      -9.55615360
C       -8.11883341       2.23062936      -9.97562658
C       -7.43685200       3.35440205      -9.51519795
Br      -7.96666816       5.07476187     -10.09160950
C       -6.36842631       3.21781588      -8.63237766
C       -5.97544302       1.94348041      -8.21125772
H       -7.29475750      -5.80333206      -6.62858743
H       -8.00449848      -7.41742328      -6.56259802
H       -4.95739030      -6.13030684      -4.16842911
H       -3.01821684      -4.95847713      -1.98681956
H       -1.56647943      -3.54144196      -0.53504854
H       -2.18519857      -0.21867335      -3.21571493
H       -3.65236246      -0.59385887      -5.26677242
H       -6.65757123      -1.76533199     -10.02981224
H       -8.27848282       0.09570483      -9.91796532
H       -8.95945153       2.33243842     -10.65745720
H       -5.83450143       4.09143057      -8.26804881
H       -5.13792004       1.84698350      -7.52349613
N       -7.27544886       6.84821643       6.19272082
C       -6.28437414       7.11934232       5.32296259
S       -6.01253859       8.64525680       4.73789662
N       -5.52385035       6.05671655       4.95616825
N       -5.75226633       4.71530598       5.46469456
C       -4.91299046       3.77611368       4.96877791
O       -4.11563046       4.19272000       4.07367807
C       -3.41834940       3.40733391       3.39443374
C       -2.65852732       3.96535923       2.36406911
C       -1.84464122       3.16520461       1.55822360
C       -1.79119503       1.79119503       1.79119503
C       -2.53690855       1.21439532       2.82281627
C       -3.35686572       2.02514703       3.63239058
C       -4.12376901       1.52904854       4.67134238
C       -4.92792785       2.42084589       5.37535658
C       -5.76952116       1.87424150       6.45856343
S       -6.10777381       2.75223102       7.90314658
C       -7.01226987       1.43296312       8.50350677
C       -6.95981004       0.38048728       7.61324142
N       -6.21703916       0.62904754       6.46672956
C       -7.57957458      -0.91791171       7.85527728
C       -8.76023255      -1.04310973       8.60377777
C       -9.32216194      -2.30163688       8.84330557
C       -8.70684632      -3.44224008       8.33304166
Br      -9.45989415      -5.14340604       8.66702768
C       -7.54151464      -3.33635248       7.57782593
C       -6.98380976      -2.07685876       7.33626933
H       -7.36777048       5.88365401       6.47525249
H       -7.90640267       7.56344532       6.51467180
H       -4.75881343       6.19445986       4.30285297
H       -2.71915680       5.03805519       2.20630153
H       -1.26405036       3.62065758       0.75826198
H       -2.48671106       0.13945750       2.99341829
H       -4.12255399       0.46952451       4.92091525
H       -7.49459678       1.48984752       9.46827115
H       -9.26688457      -0.16645331       9.00031205
H      -10.23710404      -2.37811532       9.42548160
H       -7.05876747      -4.22283488       7.17518707
H       -6.07180769      -2.00472852       6.74735352
N        6.27857650      -7.35761069       6.68019892
C        5.22820664      -6.55714147       6.94133093
S        4.39743062      -6.62522241       8.37303899
N        4.89460736      -5.69146679       5.95066101
N        5.61753550      -5.62213355       4.69259782
C        5.12753928      -4.71806803       3.81227474
O        4.06381863      -4.13422251       4.18398740
C        3.39655244      -3.41990446       3.40366015
C        2.18704048      -2.91502254       3.88589264
C        1.37907059      -2.10226368       3.08673517
C        1.79119503      -1.79119503       1.79119503
C        3.00225594      -2.27903706       1.29282714
C        3.81337291      -3.09894155       2.10208888
C        5.02371340      -3.61971717       1.68072936
C        5.71776382      -4.45239797       2.55396853
C        6.99071072      -5.03154891       2.08006647
S        8.33303611      -5.30282822       3.12728709
C        9.25374600      -5.88424182       1.81075194
C        8.52417811      -5.78520747       0.64415316
N        7.24765739      -5.26240614       0.80275274
C        9.04527819      -6.14253716      -0.67087520
C        9.98791470      -7.16917636      -0.83619047
C       10.49143536      -7.47695736      -2.10456209
C       10.05264481      -6.76041603      -3.21541294
Br      10.74215808      -7.16864502      -4.92728731
C        9.10869344      -5.74650752      -3.07221287
C        8.60375114      -5.44329550      -1.80382630
H        6.70541538      -7.24924400       5.77201760
H        6.59599415      -8.04594267       7.34258296
H        4.11151871      -5.05924576       6.08536179
H        1.89194548      -3.17293490       4.89863315
H        0.43842837      -1.72303815       3.48150341
H        3.31191299      -2.02913299       0.27854088
H        5.41635645      -3.40904931       0.68758800
H       10.26696790      -6.22863171       1.95711586
H       10.33496151      -7.75221645       0.01356535
H       11.22111239      -8.27562389      -2.21226597
H        8.76100394      -5.18604774      -3.93593202
H        7.86859031      -4.64773278      -1.70189042
C       -0.00445707       0.01189536      -1.78238275
H       -0.66409135       0.67374010      -2.43557963
H        0.65740317      -0.63156657      -2.45157240
C       -0.90989263      -0.90692880      -0.91072765
C        0.90977584       0.90977584      -0.90977584
C       -0.00465871       1.77757030       0.00794375
H       -0.66225468       2.44313916      -0.64384735
H        0.64322798       2.43503045       0.67728295
C       -1.78241447       0.00034974      -0.00472694
H       -2.45427497      -0.65498947       0.64260836
H       -2.43311707       0.67328779      -0.65473579
C       -0.91132561       0.90220522       0.91563759
C       -0.01476271      -0.02253852       1.78660255
H       -0.67934791      -0.69751639       2.42135241
H        0.63392994       0.61504881       2.47327442
C        0.01484550      -1.77751727      -0.01636693
H        0.67870853      -2.42144646      -0.68295456
H       -0.62264859      -2.45592969       0.64226336
C        1.78714474       0.01002794       0.00389507
H        2.44202412       0.67113390       0.66197326
H        2.45385902      -0.65136977      -0.64189061
C        0.91606151      -0.90478549       0.90901405
