90
Properties=species:S:1:pos:R:3 pbc="F F F"
N        4.96317083       6.17445122      -6.34828324
C        3.68731892       6.58656709      -6.52121654
S        3.24733677       7.65267978      -7.71270211
N        2.80106657       6.02143019      -5.65295571
N        3.20916844       4.99451770      -4.72916748
C        2.14171146       4.32157539      -4.27116028
H        1.12027941       4.46881378      -4.60989545
C        2.33636088       3.31314917      -3.28929196
O        1.27820303       2.67438213      -2.67247238
C        1.77883178       1.77883178      -1.77883178
C        3.14570764       1.81149609      -1.81350696
Br       4.38500897       0.80949609      -0.82701126
C        3.51008962       2.77769753      -2.76580153
H        4.97986854       5.37485716      -5.72094604
H        5.63699010       6.29198411      -7.08048125
H        1.81678179       6.24121476      -5.73021080
H        4.50182125       3.08359128      -3.06991396
N       -5.90856935      -6.54002246      -5.03731347
C       -6.02865968      -6.99607116      -3.77037171
S       -6.77897619      -8.42896490      -3.40477757
N       -5.44997123      -6.19018831      -2.83529293
N       -4.68766136      -5.02902524      -3.21616702
C       -3.90230902      -4.62823255      -2.20390555
H       -3.78914158      -5.15117570      -1.25867135
C       -3.12548407      -3.44933649      -2.36398146
O       -2.40089334      -2.90016870      -1.32399551
C       -1.77883178      -1.77883178      -1.77883178
C       -2.07281615      -1.59591049      -3.10198405
Br      -1.50782266      -0.24348015      -4.27021351
C       -2.92326409      -2.64678561      -3.48353897
H       -5.24097086      -5.77390101      -5.06079986
H       -6.03497871      -7.16119856      -5.81327819
H       -5.45686767      -6.46846796      -1.86287172
H       -3.36394572      -2.83913788      -4.45224289
N       -6.11104945       4.97363012       6.40122570
C       -5.96858292       3.78926685       7.03725278
S       -6.86795906       3.37679098       8.36796861
N       -5.04845228       2.96157730       6.46542290
N       -4.39596213       3.30791126       5.22898023
C       -3.85569085       2.21856774       4.66018854
H       -3.96478701       1.20342796       5.03077367
C       -3.10316175       2.37100220       3.46463807
O       -2.40540985       1.32257499       2.89707270
C       -1.77883178       1.77883178       1.77883178
C       -2.06871040       3.10327538       1.59872491
Br      -1.51054047       4.26935871       0.24161713
C       -2.90630130       3.48887405       2.65841332
H       -5.63445175       4.93704360       5.50417638
H       -6.93027816       5.53169168       6.54748563
H       -4.89983838       2.03806666       6.85030230
H       -3.34168732       4.45924353       2.85439565
N        6.55954841      -5.05250827       5.87384861
C        7.04703841      -3.79414215       5.95392199
S        8.50500827      -3.44506568       6.66264471
N        6.24940106      -2.85395279       5.37209863
N        5.06238914      -3.22491371       4.64555077
C        4.66656466      -2.22174439       3.84613808
H        5.20813788      -1.29179280       3.69905796
C        3.46652408      -2.37194183       3.10033611
O        2.92445298      -1.33621615       2.36438841
C        1.77883178      -1.77883178       1.77883178
C        1.57270240      -3.09031067       2.10769763
Br       0.18117891      -4.23924771       1.60108970
C        2.63416019      -3.47679086       2.94263762
H        5.77772478      -5.07332848       5.22461847
H        7.16565337      -5.83966979       6.00413230
H        6.54986172      -1.88838379       5.34996183
H        2.81460731      -4.43942053       3.40129865
C       -0.00445707       0.01189536      -1.78238275
H       -0.66409135       0.67374010      -2.43557963
H        0.65740317      -0.63156657      -2.45157240
C       -0.90989263      -0.90692880      -0.91072765
C        0.90977584       0.90977584      -0.90977584
C       -0.00465871       1.77757030       0.00794375
H       -0.66225468       2.44313916      -0.64384735
H        0.64322798       2.43503045       0.67728295
C       -1.78241447       0.00034974      -0.00472694
H       -2.45427497      -0.65498947       0.64260836
H       -2.43311707       0.67328779      -0.65473579
C       -0.91132561       0.90220522       0.91563759
C       -0.01476271      -0.02253852       1.78660255
H       -0.67934791      -0.69751639       2.42135241
H        0.63392994       0.61504881       2.47327442
C        0.01484550      -1.77751727      -0.01636693
H        0.67870853      -2.42144646      -0.68295456
H       -0.62264859      -2.45592969       0.64226336
C        1.78714474       0.01002794       0.00389507
H        2.44202412       0.67113390       0.66197326
H        2.45385902      -0.65136977      -0.64189061
C        0.91606151      -0.90478549       0.90901405
