190
Properties=species:S:1:pos:R:3 pbc="F F F"
C        1.79124037       1.79124037      -1.79124037
C        3.03107484       1.32221785      -2.22033927
C        3.83836387       2.12903339      -3.02953564
C        3.41345533       3.40902688      -3.41675181
C        2.16058256       3.86209490      -2.97132254
C        1.35125116       3.05901250      -2.16187140
C        4.23159959       4.27699193      -4.26028619
N        3.94969803       5.48481300      -4.71721384
C        5.06986898       5.83565011      -5.42514144
C        5.37717572       7.00261535      -6.13242974
C        6.64462652       7.11680181      -6.73164948
N        7.03723305       8.27076381      -7.43776187
C        6.80171094       9.41628208      -6.88417106
C        7.15145065      10.69271733      -7.53777389
C        6.73170230      11.82797715      -6.95916456
C        7.04374617      13.14516348      -7.50349600
C        8.14025724      13.85535648      -7.00044963
C        8.42815588      15.13554585      -7.47526709
C        7.62318097      15.71170563      -8.45594807
C        6.53415620      15.00154501      -8.96185637
C        6.24132791      13.71995370      -8.49422598
C        7.54610805       6.04081379      -6.66809985
C        7.24549952       4.85134716      -5.98597300
C        6.00049156       4.81266321      -5.37490910
O        5.46696903       3.80132772      -4.63090914
H        3.37945781       0.33309604      -1.93341081
H        4.80360334       1.74559424      -3.35489295
H        1.80758454       4.85269338      -3.25597133
H        0.38589808       3.43279779      -1.83079998
H        4.64375879       7.79644791      -6.19722180
H        6.32468768       9.50255678      -5.88989593
H        7.72898576      10.65403115      -8.45080408
H        6.14204456      11.82974902      -6.04625620
H        8.77225916      13.41882203      -6.22976090
H        9.27820551      15.68483610      -7.07632169
H        7.84753297      16.71224003      -8.81563486
H        5.38633420      13.17679643      -8.88843021
H        8.50951293       6.13594480      -7.16524054
H        7.93957148       4.02152172      -5.93242522
C        5.69918047      15.60192377      -9.96980522
C        4.99988830      16.10474099     -10.81396238
Br       3.86919200      16.91775389     -12.17889311
C       -1.79124037      -1.79124037      -1.79124037
C       -3.09238558      -1.39191525      -2.08933113
C       -3.89986099      -2.19859324      -2.89847867
C       -3.41404306      -3.40881039      -3.41638057
C       -2.09981255      -3.79244036      -3.10174709
C       -1.29001187      -2.98933003      -2.29279317
C       -4.23053917      -4.27461443      -4.26372410
N       -3.89773616      -5.41931709      -4.83467163
C       -5.04175546      -5.80500838      -5.48389670
C       -5.31759407      -6.93749045      -6.25713628
C       -6.61680117      -7.10762267      -6.76865397
N       -6.97830126      -8.23404190      -7.53341558
C       -6.61589908      -9.39484072      -7.09142428
C       -6.92160152     -10.64347039      -7.81686996
C       -6.37482335     -11.78127428      -7.36274639
C       -6.63137135     -13.07545982      -7.98557449
C       -7.62921404     -13.90560982      -7.46123948
C       -7.85895764     -15.16621192      -8.01379926
C       -7.09424505     -15.60287293      -9.09371671
C       -6.10406963     -14.77313936      -9.62034859
C       -5.87009957     -13.51022311      -9.07518492
C       -7.58709685      -6.11426368      -6.55366116
C       -7.32157173      -4.95809351      -5.80315444
C       -6.03817945      -4.86567441      -5.28421002
O       -5.52308811      -3.87263421      -4.50348357
H       -3.48869568      -0.45740058      -1.69986841
H       -4.91348653      -1.87016322      -3.12044078
H       -1.69862476      -4.72822406      -3.48940043
H       -0.27652965      -3.30857434      -2.06439186
H       -4.53523266      -7.66361514      -6.43858070
H       -6.05633419      -9.51585918      -6.14494701
H       -7.57113072     -10.58372416      -8.67896610
H       -5.71596840     -11.80335110      -6.49873028
H       -8.22838275     -13.57855981      -6.61389952
H       -8.63189761     -15.80916390      -7.59830180
H       -7.27224333     -16.58888605      -9.51427848
H       -5.09141665     -12.87332404      -9.48682014
H       -8.57733729      -6.24880518      -6.98455581
H       -8.06836107      -4.19223419      -5.63292315
C       -5.30991729     -15.22948704     -10.73150513
C       -4.64481471     -15.61167823     -11.66209873
Br      -3.56940008     -16.22964905     -13.16678987
C       -1.79124037       1.79124037       1.79124037
C       -1.51508103       3.15202820       1.90652273
C       -2.32366697       3.96042752       2.71283840
C       -3.41387346       3.41649484       3.40886572
C       -3.67287041       2.04191120       3.27921839
C       -2.86659872       1.23057965       2.47495671
C       -4.27762789       4.23199843       4.25925138
N       -5.34313483       3.86084515       4.94774489
C       -5.74274988       5.01160699       5.57630367
C       -6.80635728       5.25409328       6.45177025
C       -6.95318729       6.54201635       6.99787417
N       -7.98280337       6.85663985       7.90631552
C       -8.18864129       6.03180106       8.88172174
C       -9.25113200       6.24736634       9.88344354
C       -9.48882390       5.26471196      10.76530816
C      -10.49559708       5.38208149      11.81472709
C      -10.10881335       5.79062811      13.09662188
C      -11.04841332       5.86492751      14.12562799
C      -12.37904959       5.53311943      13.87866566
C      -12.76583075       5.13203718      12.59968965
C      -11.83284086       5.05783285      11.56483387
C       -6.07874916       7.56989906       6.60637347
C       -5.02196144       7.35249956       5.70835867
C       -4.89676020       6.05323264       5.23807103
O       -3.95240729       5.56171796       4.38508065
H       -0.67630159       3.59469776       1.37496532
H       -2.09241956       5.02111342       2.79055756
H       -4.51199228       1.59391525       3.81034173
H       -3.08840381       0.16991281       2.39117923
H       -7.48712289       4.44976688       6.70053873
H       -7.57955764       5.11868668       9.01889607
H       -9.78762274       7.18562129       9.86057696
H       -8.93755007       4.32821388      10.75228583
H       -9.07150124       6.04585479      13.30348606
H      -10.74070091       6.17751144      15.12115094
H      -13.10441222       5.58489859      14.68609705
H      -12.14136721       4.73696902      10.57322460
H       -6.22812234       8.56732170       7.01525424
H       -4.34428518       8.14199125       5.40724199
C      -14.13997109       4.78232285      12.34861553
C      -15.29081362       4.48943710      12.13834095
Br     -17.15162866       4.01586560      11.79834474
C        1.79124037      -1.79124037       1.79124037
C        1.47206063      -3.13627849       1.96529283
C        2.28057090      -3.94475737       2.77160462
C        3.41360057      -3.41666648       3.40896697
C        3.71560157      -2.05773055       3.22066788
C        2.90957944      -1.24633517       2.41622046
C        4.27855680      -4.23269827       4.25762263
N        5.38060877      -3.87653692       4.89457919
C        5.76226876      -5.01834841       5.55004336
C        6.84775330      -5.26844807       6.39601944
C        6.96917091      -6.54097583       6.98293107
N        8.01938066      -6.86073857       7.86563950
C        8.28909127      -6.01031759       8.80275523
C        9.37897220      -6.22907872       9.77389095
C        9.68262361      -5.22546351      10.61075689
C       10.72201528      -5.34246954      11.62792084
C       10.36785856      -5.69170759      12.93649719
C       11.34092786      -5.76397922      13.93406174
C       12.67253039      -5.48939577      13.62890852
C       13.02652942      -5.14751057      12.32351759
C       12.05984673      -5.07577759      11.31988328
C        6.04575322      -7.54957599       6.65969247
C        4.96538687      -7.32556606       5.79186675
C        4.86871191      -6.03984299       5.27950897
O        3.91184527      -5.54456268       4.44279794
H        0.59963221      -3.56659112       1.47974134
H        2.01537137      -4.99301211       2.89570706
H        4.58854237      -1.62212583       3.70558106
H        3.16512860      -0.19796929       2.28639796
H        7.56476538      -4.48109599       6.59156712
H        7.71764839      -5.07151509       8.92797691
H        9.88117427      -7.18636796       9.76627875
H        9.16429643      -4.27064761      10.58310575
H        9.33043256      -5.90182745      13.18858208
H       11.05872699      -6.03024434      14.95039197
H       13.42439838      -5.53916069      14.41184879
H       12.34329149      -4.80113579      10.30713355
H        6.17489228      -8.53685770       7.09894830
H        4.25008325      -8.10004304       5.54339213
C       14.40205768      -4.85676227      12.01208951
C       15.55406259      -4.61326057      11.75126850
Br      17.41675710      -4.21953892      11.32954298
C       -0.00445707       0.01189536      -1.78238275
H       -0.66409135       0.67374010      -2.43557963
H        0.65740317      -0.63156657      -2.45157240
C       -0.90989263      -0.90692880      -0.91072765
C        0.90977584       0.90977584      -0.90977584
C       -0.00465871       1.77757030       0.00794375
H       -0.66225468       2.44313916      -0.64384735
H        0.64322798       2.43503045       0.67728295
C       -1.78241447       0.00034974      -0.00472694
H       -2.45427497      -0.65498947       0.64260836
H       -2.43311707       0.67328779      -0.65473579
C       -0.91132561       0.90220522       0.91563759
C       -0.01476271      -0.02253852       1.78660255
H       -0.67934791      -0.69751639       2.42135241
H        0.63392994       0.61504881       2.47327442
C        0.01484550      -1.77751727      -0.01636693
H        0.67870853      -2.42144646      -0.68295456
H       -0.62264859      -2.45592969       0.64226336
C        1.78714474       0.01002794       0.00389507
H        2.44202412       0.67113390       0.66197326
H        2.45385902      -0.65136977      -0.64189061
C        0.91606151      -0.90478549       0.90901405
