177
Properties=species:S:1:pos:R:3 pbc="F F F"
C        0.00000000       0.00000000       0.00000000
O        6.88455751      -6.14562249      -6.29955305
C        6.75705658      -4.91938394      -6.24850111
N        6.29462459      -4.32992440      -5.09476390
N        6.13649970      -2.98567795      -4.98074419
C        5.34540563      -2.58589598      -4.03660116
C        5.04666663      -1.19057109      -3.89726140
C        5.56595143      -0.06795213      -4.50712153
C        4.80447276       1.03091658      -4.04479345
C        3.86025175       0.52311301      -3.17322711
O        4.02860783      -0.83055449      -3.06345989
C        2.76060440       1.10583724      -2.40765685
C        2.48423395       2.48000372      -2.49330226
C        1.42119187       3.04649138      -1.78359928
C        0.61715666       2.24573670      -0.97629393
C        0.88222495       0.88222495      -0.88222495
C        1.94262906       0.31243592      -1.58900271
C        7.12087856      -4.02584780      -7.42731383
C        5.97139901      -3.20060365      -7.99151205
C        6.08170699      -1.80275074      -7.89589118
C        5.04565850      -0.97538207      -8.30471200
C        3.88167692      -1.53101192      -8.83274125
Br       2.51833474      -0.28927131      -9.32372291
C        3.73789282      -2.93282282      -8.98826516
C        2.57952781      -3.53508246      -9.54014368
C        2.46584771      -4.91573716      -9.69632068
C        3.51052003      -5.73533914      -9.30762291
C        4.66239233      -5.17388559      -8.75601587
C        4.80668310      -3.77879286      -8.57161943
H        5.98622634      -4.95752013      -4.35889378
H        4.84096164      -3.28752658      -3.34905428
H        6.37766758      -0.05597807      -5.22073751
H        4.91865056       2.06543755      -4.33576678
H        3.08981716       3.13027453      -3.12023667
H        1.22011650       4.11189285      -1.86577168
H       -0.20958981       2.69097049      -0.42923885
H        2.12745652      -0.75581737      -1.50497909
H        7.53030365      -4.65105723      -8.23014865
H        7.94904942      -3.38166517      -7.10572396
H        6.97202501      -1.35162466      -7.46216180
H        5.14874735       0.10084844      -8.19307796
H        1.73662975      -2.92977718      -9.86515250
H        1.56421142      -5.34366273     -10.12594551
H        3.43848820      -6.81287099      -9.43084894
H        5.45805905      -5.86210608      -8.47938540
O        3.41353129     -10.63783129       0.18581193
C        2.46240650     -10.13238644      -0.41619381
N        2.50492931      -8.80175400      -0.76263941
N        1.48869673      -8.19301244      -1.42725022
C        1.45365778      -6.90084416      -1.34892442
C        0.36710505      -6.17792224      -1.94253975
C       -0.66437886      -6.57200814      -2.76873384
C       -1.49330514      -5.43968979      -2.94718785
C       -0.92355599      -4.41036960      -2.22266627
O        0.22785461      -4.85658080      -1.63278703
C       -1.29756329      -3.02399251      -1.95254269
C       -2.48604835      -2.49253791      -2.47895367
C       -2.86695094      -1.17454402      -2.20978756
C       -2.06360461      -0.36694847      -1.40863421
C       -0.88222495      -0.88222495      -0.88222495
C       -0.49801666      -2.19757491      -1.14847613
C        1.23916362     -10.94915072      -0.81235749
C       -0.07731402     -10.47451459      -0.21047880
C       -1.05827830     -10.01211214      -1.10445699
C       -2.25325208      -9.48106969      -0.64066666
C       -2.49745264      -9.41587373       0.72992012
Br      -4.16084321      -8.63178299       1.23983986
C       -1.55762344      -9.90674774       1.67103603
C       -1.77761292      -9.87796655       3.07099044
C       -0.84463305     -10.37929016       3.97749197
C        0.33596678     -10.92803330       3.50926271
C        0.58494124     -10.96656129       2.13709744
C       -0.33349851     -10.45603894       1.19002776
H        3.29575423      -8.26911588      -0.41423835
H        2.21101630      -6.31984265      -0.79366299
H       -0.80939000      -7.56648708      -3.16654993
H       -2.41032609      -5.39244921      -3.51707959
H       -3.13772618      -3.10005403      -3.10254816
H       -3.79292335      -0.78192474      -2.62293294
H       -2.36613654       0.65583799      -1.20032097
H        0.42593119      -2.58064532      -0.72190411
H        1.40239512     -11.99322871      -0.51856147
H        1.19232138     -10.95671134      -1.90871824
H       -0.87486326     -10.03071454      -2.17698436
H       -2.98148071      -9.10608288      -1.35511016
H       -2.69367497      -9.46197784       3.48364774
H       -1.04716624     -10.34376125       5.04443329
H        1.06874649     -11.32961274       4.20440009
H        1.52228086     -11.41999481       1.82237557
O        4.11396988      10.35831895       0.79413900
C        3.09126656       9.88280930       1.29463101
N        3.02107654       8.53251960       1.54802105
N        1.92230833       7.95467097       2.09920328
C        1.80754743       6.67624199       1.92741625
C        0.63626866       5.99442433       2.39520127
C       -0.42281902       6.40508203       3.17721979
C       -1.33534905       5.32499765       3.21983608
C       -0.78502404       4.30807261       2.46349521
O        0.43224768       4.70964101       1.98411988
C       -1.22980396       2.97256526       2.07172927
C       -2.48511683       2.49297645       2.47944665
C       -2.93230615       1.22595561       2.09302076
C       -2.12939607       0.41823506       1.29155616
C       -0.88222495       0.88222495       0.88222495
C       -0.43171385       2.14657292       1.26578093
C        1.89972349      10.75616966       1.66589842
C        0.60068382      10.41679544       0.94619580
C       -0.46955065       9.96693469       1.73836208
C       -1.66116709       9.55368450       1.16013684
C       -1.81146255       9.59670857      -0.22476488
Br      -3.48275584       8.96782440      -0.89779390
C       -0.77694884      10.08093676      -1.06455043
C       -0.89865964      10.16043131      -2.47450192
C        0.12727644      10.65325642      -3.27954874
C        1.30544249      11.08484852      -2.69660223
C        1.45861440      11.01483948      -1.31170247
C        0.44366877      10.50914692      -0.46596848
H        3.79763887       7.96941519       1.21582368
H        2.56225332       6.08104879       1.38369387
H       -0.52957012       7.37884993       3.63400697
H       -2.29153965       5.30524459       3.72307065
H       -3.13772558       3.10255711       3.10004567
H       -3.90914042       0.87344623       2.41519438
H       -2.48337497      -0.56454089       0.99178544
H        0.54342494       2.49060946       0.92943372
H        2.15202509      11.80320023       1.45821992
H        1.77595579      10.69452437       2.75453963
H       -0.36172638       9.90154789       2.81928789
H       -2.46136042       9.18479931       1.79651402
H       -1.80869086       9.83855993      -2.97524571
H       -0.00109078      10.70278099      -4.35737756
H        2.11055641      11.47860246      -3.31157989
H        2.39923473      11.37894777      -0.90437467
O        8.41580677       5.84015765       4.46283896
C        8.13144194       4.64759601       4.60232782
N        7.44070121       3.99130651       3.61006940
N        7.10271478       2.67938793       3.70823908
C        6.14239843       2.28194045       2.93565282
C        5.65639524       0.93665374       3.03361544
C        6.11377901      -0.16395644       3.72738539
C        5.16424825      -1.19250121       3.52343333
C        4.17626341      -0.66789353       2.71243492
O        4.49374084       0.62410451       2.39187689
C        2.91556286      -1.17914954       2.17938608
C        2.48604353      -2.47895598       2.49254043
C        1.27122490      -2.97253411       2.00752352
C        0.46631972      -2.17212587       1.20074169
C        0.88222495      -0.88222495       0.88222495
C        2.09444706      -0.38539290       1.36422773
C        8.54517697       3.86449291       5.84166053
C        7.39400152       3.28684967       6.65515556
C        7.31561556       1.88650904       6.74574090
C        6.25355321       1.27145095       7.39288617
C        5.25407052       2.04756533       7.97690105
Br       3.83088166       1.08212041       8.80402509
C        5.30856121       3.46395959       7.94873354
C        4.32375206       4.28802819       8.54886516
C        4.40528022       5.67945788       8.52060890
C        5.47770271       6.28815847       7.89325955
C        6.46122879       5.50512033       7.28841415
C        6.40397496       4.09167555       7.28721027
H        7.11124623       4.56023937       2.83659313
H        5.63642505       2.95736232       2.22342661
H        7.01066050      -0.20238345       4.32938307
H        5.18947659      -2.18866395       3.94171436
H        3.08911760      -3.12578274       3.12542802
H        0.95341180      -3.98020077       2.26416847
H       -0.47835041      -2.55996701       0.82900292
H        2.39639365       0.62714858       1.10737318
H        9.13854296       4.51993754       6.49078965
H        9.23314879       3.07458787       5.51454729
H        8.07264211       1.26350655       6.27342660
H        6.20564978       0.18602143       7.42304540
H        3.46701435       3.85329887       9.05828959
H        3.63368183       6.28077072       8.99358309
H        5.55791234       7.37189940       7.87045321
H        7.28870944       6.03397094       6.82059987
