198
Properties=species:S:1:pos:R:3 pbc="F F F"
O        7.79446153      -5.23571846      -7.20945707
C        7.66696060      -4.00947992      -7.15840513
N        7.20452862      -3.42002037      -6.00466793
N        7.04640372      -2.07577393      -5.89064821
C        6.25530965      -1.67599195      -4.94650518
C        5.95657065      -0.28066706      -4.80716542
C        6.47585545       0.84195190      -5.41702556
C        5.71437678       1.94082061      -4.95469747
C        4.77015577       1.43301703      -4.08313113
O        4.93851185       0.07934953      -3.97336391
C        3.67050843       2.01574127      -3.31756087
C        3.39413797       3.38990774      -3.40320628
C        2.33109589       3.95639540      -2.69350330
C        1.52706068       3.15564072      -1.88619795
C        1.79212897       1.79212897      -1.79212897
C        2.85253309       1.22233995      -2.49890674
C        8.03078258      -3.11594377      -8.33721785
C        6.88130303      -2.29069962      -8.90141608
C        6.99161102      -0.89284672      -8.80579520
C        5.95556252      -0.06547804      -9.21461602
C        4.79158094      -0.62110790      -9.74264527
Br       3.42823876       0.62063271     -10.23362693
C        4.64779684      -2.02291880      -9.89816918
C        3.48943183      -2.62517843     -10.45004771
C        3.37575174      -4.00583313     -10.60622471
C        4.42042406      -4.82543512     -10.21752694
C        5.57229636      -4.26398157      -9.66591989
C        5.71658713      -2.86888883      -9.48152346
H        6.89613037      -4.04761611      -5.26879781
H        5.75086566      -2.37762255      -4.25895830
H        7.28757160       0.85392595      -6.13064153
H        5.82855458       2.97534157      -5.24567081
H        3.99972118       4.04017856      -4.03014069
H        2.13002053       5.02179688      -2.77567570
H        0.70031421       3.60087451      -1.33914287
H        3.03736054       0.15408666      -2.41488312
H        8.44020767      -3.74115320      -9.14005267
H        8.85895344      -2.47176115      -8.01562799
H        7.88192904      -0.44172063      -8.37206583
H        6.05865137       1.01075246      -9.10298199
H        2.64653378      -2.01987315     -10.77505653
H        2.47411545      -4.43375871     -11.03584954
H        4.34839223      -5.90296697     -10.34075297
H        6.36796308      -4.95220206      -9.38928943
O       -2.58044875     -10.93049784       3.74274645
C       -3.00870170     -10.48282569       2.67564157
N       -2.30475553      -9.50144788       2.01702725
N       -2.72686317      -8.97333848       0.83892365
C       -2.22706300      -7.82131018       0.52255030
C       -2.68095603      -7.14484584      -0.65726715
C       -3.49861007      -7.54177130      -1.69445154
C       -3.67495576      -6.41015396      -2.52478513
C       -2.95296014      -5.37999390      -1.95334990
O       -2.32410805      -5.83916354      -0.82795370
C       -2.75841478      -3.96848709      -2.27690869
C       -3.40074945      -3.39848793      -3.38801462
C       -3.24106979      -2.04408987      -3.69583494
C       -2.43528201      -1.23803526      -2.89558209
C       -1.79212897      -1.79212897      -1.79212897
C       -1.94867427      -3.14395607      -1.48114942
C       -4.29416501     -11.00389837       2.04600672
C       -5.39243555      -9.96396365       1.86437971
C       -5.78139577      -9.66947936       0.54631564
C       -6.71193197      -8.67482418       0.28205565
C       -7.28453733      -7.96351800       1.33493701
Br      -8.52195127      -6.59843986       0.83789272
C       -6.95648063      -8.25055019       2.68398359
C       -7.53225406      -7.56484068       3.78279364
C       -7.20466516      -7.87367619       5.10219803
C       -6.29275858      -8.88131366       5.36155637
C       -5.70421093      -9.57177752       4.30175377
C       -6.00382248      -9.27653461       2.95113534
H       -1.49806266      -9.12119151       2.50194210
H       -1.48742100      -7.30161510       1.15683468
H       -3.93452441      -8.52358260      -1.81403208
H       -4.27892321      -6.35158323      -3.41906052
H       -4.04156582      -4.00027778      -4.02819683
H       -3.74983302      -1.61967771      -4.55798238
H       -2.31716480      -0.18525867      -3.13790812
H       -1.44139726      -3.55386085      -0.61107221
H       -4.68411655     -11.82063072       2.66564013
H       -4.02484127     -11.46554827       1.08756926
H       -5.32604977     -10.19609874      -0.29012572
H       -6.97263803      -8.45070480      -0.74904300
H       -8.25809162      -6.77030311       3.62667758
H       -7.66758585      -7.32946907       5.92084865
H       -6.03400524      -9.13779567       6.38562268
H       -5.00405752     -10.36265646       4.56166354
O        3.90652286      10.79859264       2.87613037
C        2.81227264      10.37278329       3.25537517
N        2.61783432       9.01755906       3.38945143
N        1.43593825       8.49250411       3.80471215
C        1.23809086       7.24501523       3.51889850
C       -0.01689300       6.62908976       3.83708625
C       -1.10270026       7.06517598       4.56695667
C       -2.09580179       6.06465162       4.44944145
C       -1.56415143       5.06653422       3.65561828
O       -0.28401337       5.40107507       3.30613685
C       -2.07598330       3.80666218       3.12116508
C       -3.39394611       3.40326514       3.39004075
C       -3.90336014       2.21123024       2.86640422
C       -3.10093945       1.40342966       2.06453025
C       -1.79212897       1.79212897       1.79212897
C       -1.27938095       2.98145214       2.31294668
C        1.66453103      11.31113814       3.60544955
C        0.40764688      11.13721338       2.76245299
C       -0.75611844      10.71845719       3.42998386
C       -1.92370514      10.45133955       2.72965581
C       -1.95455531      10.61286860       1.34569441
Br      -3.60740142      10.17867095       0.49642604
C       -0.81968346      11.07239670       0.63096706
C       -0.81725043      11.26970706      -0.77265638
C        0.30686952      11.73582428      -1.45281144
C        1.46210719      12.02192231      -0.74729924
C        1.49374459      11.83334256       0.63463671
C        0.37617317      11.35040405       1.35499087
H        3.37382161       8.41898147       3.07215221
H        1.98749140       6.63260582       2.98708700
H       -1.17202517       8.00651150       5.09360242
H       -3.08921844       6.08592907       4.87441946
H       -4.04719482       4.01557873       4.00726688
H       -4.92776634       1.91750098       3.08222578
H       -3.50313481       0.47941152       1.65778526
H       -0.25613079       3.26799173       2.08220779
H        2.01283633      12.34639760       3.50554587
H        1.44628858      11.17663644       4.67247242
H       -0.74390209      10.56156934       4.50680281
H       -2.79999317      10.10253601       3.26985664
H       -1.70449193      11.06401648      -1.36679126
H        0.27276729      11.87842262      -2.52944905
H        2.34341299      12.39338335      -1.26379213
H        2.42238922      12.08562377       1.14181590
O       11.59874165       2.31819641       0.48765491
C       11.08423596       1.40001183       1.13166169
N        9.92675863       0.81303832       0.67545586
N        9.31773978      -0.20218619       1.34135203
C        8.07048043      -0.40048920       1.05485325
C        7.32092212      -1.39020674       1.77194016
C        7.69740699      -2.35770304       2.67972287
C        6.50604821      -2.97199093       3.13185572
C        5.46228317      -2.34972827       2.47429250
O        5.96480915      -1.40304712       1.62336902
C        4.00726080      -2.47417925       2.52237051
C        3.40023620      -3.38793355       3.39908225
C        2.00861088      -3.50115294       3.47123078
C        1.20182279      -2.70074207       2.66633450
C        1.79212897      -1.79212897       1.79212897
C        3.18117476      -1.67583800       1.71676701
C       11.70900955       0.87474103       2.41778814
C       10.83658295       1.00440982       3.65984636
C       10.43244576      -0.18837479       4.28373895
C        9.56737226      -0.16899619       5.36833205
C        9.10021041       1.04812917       5.86103707
Br       7.88889493       0.93789173       7.33149521
C        9.51060752       2.28052790       5.29296761
C        9.07512546       3.53907816       5.77825381
C        9.50297999       4.73915100       5.21231432
C       10.38298809       4.71545442       4.14498220
C       10.82635786       3.49264781       3.64052462
C       10.40331484       2.25618153       4.18208844
H        9.49453800       1.23880069      -0.13842524
H        7.53207675       0.20200712       0.30213178
H        8.70994541      -2.56836843       2.99382525
H        6.42268617      -3.75769419       3.86918661
H        4.00293395      -4.02209445       4.04501203
H        1.55669318      -4.21154903       4.15925090
H        0.12062932      -2.79093838       2.72876389
H        3.62017983      -0.95523766       1.03091283
H       12.65155596       1.40708529       2.59463647
H       11.99128952      -0.17082901       2.24070175
H       10.76585103      -1.14940908       3.89701412
H        9.25060411      -1.10887569       5.81290602
H        8.38873690       3.60604056       6.61902080
H        9.15115355       5.68650093       5.61155366
H       10.73079910       5.64370645       3.69908558
H       11.52699676       3.53128524       2.80933892
C       -0.00445707       0.01189536      -1.78238275
H       -0.66409135       0.67374010      -2.43557963
H        0.65740317      -0.63156657      -2.45157240
C       -0.90989263      -0.90692880      -0.91072765
C        0.90977584       0.90977584      -0.90977584
C       -0.00465871       1.77757030       0.00794375
H       -0.66225468       2.44313916      -0.64384735
H        0.64322798       2.43503045       0.67728295
C       -1.78241447       0.00034974      -0.00472694
H       -2.45427497      -0.65498947       0.64260836
H       -2.43311707       0.67328779      -0.65473579
C       -0.91132561       0.90220522       0.91563759
C       -0.01476271      -0.02253852       1.78660255
H       -0.67934791      -0.69751639       2.42135241
H        0.63392994       0.61504881       2.47327442
C        0.01484550      -1.77751727      -0.01636693
H        0.67870853      -2.42144646      -0.68295456
H       -0.62264859      -2.45592969       0.64226336
C        1.78714474       0.01002794       0.00389507
H        2.44202412       0.67113390       0.66197326
H        2.45385902      -0.65136977      -0.64189061
C        0.91606151      -0.90478549       0.90901405
