102
Properties=species:S:1:pos:R:3 pbc="F F F"
C        1.79261047       1.79261047      -1.79261047
C        1.51088475       3.14508532      -1.90685435
C        2.31424985       3.95826852      -2.71271975
C        3.42092914       3.41611267      -3.41860567
C        3.67379257       2.05060437      -3.27972499
C        2.87013507       1.22225221      -2.47011812
S        5.03993330       1.56815771      -4.19709331
C        5.32087359       3.15299176      -4.79321055
C        6.35108367       3.55059891      -5.66923791
C        6.42439732       4.89011226      -6.04878867
Br       7.79867948       5.44814179      -7.22353571
C        5.50699299       5.81779080      -5.57971422
C        4.48897147       5.41272206      -4.71064181
C        4.37980315       4.05774019      -4.30041552
H        0.66974025       3.58485756      -1.37663408
H        2.08387267       5.01788082      -2.79481971
H        3.09107161       0.16254007      -2.38069895
H        7.06947147       2.82398468      -6.03692093
H        5.56884095       6.86214192      -5.87867571
H        3.77532645       6.14899175      -4.34901613
C       -1.79261047      -1.79261047      -1.79261047
C       -1.32257461      -3.02701265      -2.21323715
C       -2.12483209      -3.83946676      -3.02093928
C       -3.42125813      -3.41664868      -3.41774066
C       -3.86068398      -2.16800597      -2.97543199
C       -3.05987874      -1.34143247      -2.16119419
S       -5.43967140      -1.81926090      -3.54625202
C       -5.57021476      -3.31001065      -4.38685050
C       -6.67314385      -3.75347066      -5.14430598
C       -6.60044191      -5.00159168      -5.76126466
Br      -8.06843832      -5.61888176      -6.78303691
C       -5.47067419      -5.79575572      -5.63806810
C       -4.38210563      -5.34633067      -4.88389903
C       -4.41665061      -4.08122926      -4.24007898
H       -0.33393778      -3.37414696      -1.92314714
H       -1.74579097      -4.80589055      -3.34489168
H       -3.42837514      -0.37425701      -1.83167847
H       -7.55792728      -3.13135333      -5.24109647
H       -5.41912218      -6.76927423      -6.12126218
H       -3.50152317      -5.97772832      -4.79408284
C       -1.79261047       1.79261047       1.79261047
C       -2.96391177       1.27525751       2.32365513
C       -3.77607644       2.07729795       3.13186373
C       -3.41598020       3.42075686       3.41891042
C       -2.23011544       3.90725765       2.86674885
C       -1.40452071       3.10718637       2.05079831
S       -1.95211643       5.53929503       3.31377286
C       -3.39195873       5.63166470       4.24345249
C       -3.85917880       6.75241063       4.95933106
C       -5.05799080       6.64273360       5.66257385
Br      -5.70550134       8.13339126       6.63146439
C       -5.78184454       5.46024269       5.66241078
C       -5.30906915       4.35416454       4.94910165
C       -4.09266659       4.42522706       4.22006520
H       -3.26199719       0.24984066       2.11939403
H       -4.69262413       1.66085651       3.54309256
H       -0.48675588       3.51273404       1.63482070
H       -3.29242959       7.67871262       4.95923486
H       -6.71672501       5.37971738       6.21321620
H       -5.88500076       3.43199008       4.95634348
C        1.79261047      -1.79261047       1.79261047
C        3.00431169      -1.30331900       2.25519372
C        3.81671374      -2.10553232       3.06299206
C        3.41591198      -3.42063324       3.41910225
C        2.19002146      -3.87935815       2.93474233
C        1.36381474      -3.07886404       2.11982662
S        1.86636023      -5.47962241       3.45920168
C        3.33847013      -5.59435490       4.33425088
C        3.79009096      -6.70420626       5.07662327
C        5.02023020      -6.61625164       5.72681641
Br       5.64763894      -8.09283099       6.72988705
C        5.78964164      -5.46548805       5.64936832
C        5.33200048      -4.36995035       4.91038451
C        4.08476412      -4.41964899       4.23354574
H        3.33403887      -0.29991694       1.99727607
H        4.76515587      -1.71123863       3.42017870
H        0.41439263      -3.46241934       1.75749866
H        3.18764453      -7.60567510       5.13705744
H        6.74885280      -5.40180012       6.15900567
H        5.94374530      -3.47269779       4.85689124
C       -0.00445707       0.01189536      -1.78238275
H       -0.66409135       0.67374010      -2.43557963
H        0.65740317      -0.63156657      -2.45157240
C       -0.90989263      -0.90692880      -0.91072765
C        0.90977584       0.90977584      -0.90977584
C       -0.00465871       1.77757030       0.00794375
H       -0.66225468       2.44313916      -0.64384735
H        0.64322798       2.43503045       0.67728295
C       -1.78241447       0.00034974      -0.00472694
H       -2.45427497      -0.65498947       0.64260836
H       -2.43311707       0.67328779      -0.65473579
C       -0.91132561       0.90220522       0.91563759
C       -0.01476271      -0.02253852       1.78660255
H       -0.67934791      -0.69751639       2.42135241
H        0.63392994       0.61504881       2.47327442
C        0.01484550      -1.77751727      -0.01636693
H        0.67870853      -2.42144646      -0.68295456
H       -0.62264859      -2.45592969       0.64226336
C        1.78714474       0.01002794       0.00389507
H        2.44202412       0.67113390       0.66197326
H        2.45385902      -0.65136977      -0.64189061
C        0.91606151      -0.90478549       0.90901405
