81
Properties=species:S:1:pos:R:3 pbc="F F F"
C        0.00000000       0.00000000       0.00000000
C        0.88270644       0.88270644      -0.88270644
C        0.60098073       2.23518129      -0.99695032
C        1.40434583       3.04836450      -1.80281572
C        2.51102512       2.50620864      -2.50870164
C        2.76388855       1.14070035      -2.36982097
C        1.96023105       0.31234818      -1.56021409
S        4.13002928       0.65825369      -3.28718928
C        4.41096957       2.24308774      -3.88330653
C        5.44117964       2.64069489      -4.75933389
C        5.51449329       3.98020824      -5.13888464
Br       6.88877546       4.53823777      -6.31363169
C        4.59708896       4.90788677      -4.66981020
C        3.57906745       4.50281804      -3.80073778
C        3.46989912       3.14783616      -3.39051149
H       -0.24016378       2.67495353      -0.46673005
H        1.17396864       4.10797680      -1.88491569
H        2.18116758      -0.74736396      -1.47079493
H        6.15956744       1.91408066      -5.12701690
H        4.65893693       5.95223790      -4.96877169
H        2.86542242       5.23908772      -3.43911210
C       -0.88270644      -0.88270644      -0.88270644
C       -0.30901844      -1.61036985      -1.91372405
C       -1.11070642      -2.41975893      -2.72506070
C       -2.51115230      -2.50843444      -2.50634867
C       -3.05339746      -1.76155602      -1.45945638
C       -2.25417353      -0.94263413      -0.63598567
S       -4.74925917      -1.98617293      -1.34004015
C       -4.79676784      -3.07273540      -2.66786059
C       -5.93942527      -3.71250827      -3.18927488
C       -5.78616434      -4.56809748      -4.27932435
Br      -7.30516287      -5.43879208      -4.99668996
C       -4.53992299      -4.78991723      -4.84494572
C       -3.41266524      -4.15035267      -4.31960535
C       -3.52658126      -3.27142100      -3.21024451
H        0.76061901      -1.56021856      -2.10192026
H       -0.64980610      -2.98619335      -3.53086168
H       -2.70387445      -0.37257569       0.17185158
H       -6.91560688      -3.53856051      -2.74649761
H       -4.42563776      -5.45893864      -5.69537011
H       -2.44042748      -4.33203633      -4.77115844
C       -0.88270644       0.88270644       0.88270644
C       -2.00445717       1.48934270       0.33931247
C       -2.81622532       2.29815621       1.14114451
C       -2.50716392       2.50734699       2.51142449
C       -1.37005209       1.88081066       3.02354711
C       -0.54517830       1.06376031       2.22385471
S       -1.14880157       2.24126235       4.68540832
C       -2.54972637       3.23031233       4.75732513
C       -3.03686207       3.91580875       5.88853760
C       -4.19774193       4.67691869       5.75892555
Br      -4.87143176       5.60587156       7.26334159
C       -4.86462233       4.76367098       4.54649263
C       -4.37291178       4.07924827       3.43046322
C       -3.19362816       3.29358523       3.52103338
H       -2.26325124       1.34502230      -0.70675373
H       -3.69373215       2.76894360       0.70418538
H        0.33371338       0.58847999       2.64983194
H       -2.51439768       3.84815410       6.83811323
H       -5.77048485       5.35874455       4.45071711
H       -4.90430846       4.15443010       2.48488369
C        0.88270644      -0.88270644       0.88270644
C        2.10301966      -0.40038455       1.32970812
C        2.91547223      -1.20264068       2.13741314
C        2.50599427      -2.51069975       2.50924138
C        1.27157122      -2.96252560       2.04031304
C        0.44523402      -2.16192643       1.22563287
S        0.93817688      -4.55489935       2.58239602
C        2.41716577      -4.67518686       3.44501120
C        2.86546201      -5.78233331       4.19341309
C        4.10227965      -5.69977444       4.83153208
Br       4.72540462      -7.17285907       5.84238122
C        4.88140163      -4.55688956       4.73649475
C        4.42698629      -3.46396931       3.99166766
C        3.17317654      -3.50836099       3.32670924
H        2.43949146       0.59755034       1.05957868
H        3.87071331      -0.81384788       2.48229994
H       -0.51093639      -2.54001959       0.87551535
H        2.25540649      -6.67763501       4.26762350
H        5.84580002      -4.49738451       5.23676198
H        5.04636484      -2.57290581       3.92435161
