89
Properties=species:S:1:pos:R:3 pbc="F F F"
C        0.00000000       0.00000000       0.00000000
C        0.88270644       0.88270644      -0.88270644
C        0.60098073       2.23518129      -0.99695032
C        1.40434583       3.04836450      -1.80281572
C        2.51102512       2.50620864      -2.50870164
C        2.76388855       1.14070035      -2.36982097
C        1.96023105       0.31234818      -1.56021409
S        4.13002928       0.65825369      -3.28718928
C        4.41096957       2.24308774      -3.88330653
C        5.44117964       2.64069489      -4.75933389
C        5.51449329       3.98020824      -5.13888464
C        4.59708896       4.90788677      -4.66981020
C        3.57906745       4.50281804      -3.80073778
C        3.46989912       3.14783616      -3.39051149
H       -0.24016378       2.67495353      -0.46673005
H        1.17396864       4.10797680      -1.88491569
H        2.18116758      -0.74736396      -1.47079493
H        6.15956744       1.91408066      -5.12701690
H        4.65893693       5.95223790      -4.96877169
H        2.86542242       5.23908772      -3.43911210
C        6.56039794       4.40489954      -6.03293205
C        7.43634309       4.76057851      -6.78169675
Br       8.85267230       5.33568131      -7.99238594
C       -0.88270644      -0.88270644      -0.88270644
C       -0.30398803      -1.63935180      -1.88977251
C       -1.10564350      -2.44891518      -2.70096737
C       -2.51118894      -2.50834729      -2.50639917
C       -3.05840843      -1.73276823      -1.48323320
C       -2.25925987      -0.91340844      -0.66012502
S       -4.75997663      -1.92459985      -1.39089577
C       -4.80348597      -3.03428526      -2.69959260
C       -5.94810769      -3.66283780      -3.23026292
C       -5.79095980      -4.54088176      -4.30174462
C       -4.53901507      -4.79542525      -4.84034561
C       -3.40986242      -4.16673183      -4.30602902
C       -3.52759813      -3.26570731      -3.21494133
H        0.76960283      -1.61191792      -2.05920472
H       -0.64077401      -3.03822695      -3.48786017
H       -2.71290388      -0.32063809       0.12894341
H       -6.92874823      -3.46326260      -2.80865417
H       -4.42172339      -5.48186958      -5.67635355
H       -2.43314827      -4.37413024      -4.73634375
C       -6.94893903      -5.19250946      -4.85678104
C       -7.91874664      -5.73824767      -5.32162403
Br      -9.48684352      -6.62066019      -6.07323584
C       -0.88270644       0.88270644       0.88270644
C       -1.99811890       1.49846298       0.33653046
C       -2.80984858       2.30733091       1.13834656
C       -2.50718634       2.50732369       2.51142537
C       -1.37635013       1.87175421       3.02630552
C       -0.55157201       1.05456594       2.22665537
S       -1.16227216       2.22189181       4.69130828
C       -2.55814224       3.21822102       4.76100058
C       -3.04773441       3.90018974       5.89328425
C       -4.20370514       4.66836794       5.76151310
C       -4.86342526       4.76541350       4.54594717
C       -4.36933597       4.08441028       3.42887701
C       -3.19488166       3.29179202       3.52157310
H       -2.25194311       1.36128950      -0.71171280
H       -3.68235245       2.78531785       0.69919083
H        0.32235249       0.57213864       2.65481240
H       -2.53087636       3.82447250       6.84531615
H       -5.76548020       5.36597325       4.44849307
H       -4.89510687       4.16768173       2.48083364
C       -4.71883403       5.37188962       6.90750589
C       -5.15025447       5.96108902       7.86727485
Br      -5.84782484       6.91377463       9.41914009
C        0.88270644      -0.88270644       0.88270644
C        2.11518015      -0.41091999       1.30701220
C        2.92770397      -1.21324076       2.11458132
C        2.50597555      -2.51065594       2.50930391
C        1.25950403      -2.95205270       2.06285313
C        0.43298256      -2.15129471       1.24851605
S        0.91236657      -4.53249945       2.63060623
C        2.40106929      -4.66118460       3.47510995
C        2.84467153      -5.76424280       4.23229408
C        4.09091964      -5.68984070       4.85282584
C        4.88375262      -4.55886471       4.73216861
C        4.43389206      -3.46990081       3.97883039
C        3.17080000      -3.50626980       3.33117698
H        2.46117533       0.57875090       1.01909537
H        3.89254551      -0.83276333       2.44155229
H       -0.53271669      -2.52113115       0.91618410
H        2.22387195      -6.65022243       4.32657063
H        5.85547611      -4.50568325       5.21878716
H        5.06404938      -2.58819243       3.89138044
C        4.56054934      -6.80691988       5.63076031
C        4.95386422      -7.74247370       6.28228042
Br       5.58982111      -9.25518510       7.33573335
