109
Properties=species:S:1:pos:R:3 pbc="F F F"
C        0.00000000       0.00000000       0.00000000
O        3.35691449       0.92432716      -8.31600754
C        2.89394068       0.57319120      -7.23398155
N        2.84600696       1.43298614      -6.15542936
N        2.22897217       1.10755707      -4.98468495
C        2.44623283       1.91618989      -3.99709402
C        1.88816811       1.64182621      -2.70493169
C        1.01534027       0.66756346      -2.26116229
C        0.87301090       0.87301090      -0.87301090
C        1.65781418       1.95142864      -0.53864377
I        1.93243258       2.76123714       1.31973284
O        2.27103586       2.43366313      -1.65924653
C        2.33131812      -0.78506613      -7.08187866
C        1.24367481      -1.11354775      -7.90468247
C        0.65042103      -2.37294655      -7.81285354
C        1.14366957      -3.30901042      -6.90526273
C        2.24525063      -2.99662959      -6.10527109
C        2.85316770      -1.73991065      -6.20007507
H        3.27509844       2.34335912      -6.28495865
H        3.08262657       2.81345659      -4.09576780
H        0.55853594      -0.09554007      -2.87712844
H        0.86067168      -0.38585957      -8.61683852
H       -0.19340439      -2.62416976      -8.45069122
H        0.68088602      -4.29049870      -6.83130657
H        2.63187768      -3.74750976      -5.42029619
C        4.04037305      -1.52393677      -5.41426419
C        5.03465753      -1.34305864      -4.75614758
Br       6.64233144      -1.05059401      -3.69202868
O       -4.25510903      -0.40426554      -7.93787462
C       -3.70147737      -0.12079874      -6.87883731
N       -3.42187355      -1.08291152      -5.92963739
N       -2.70231312      -0.81526363      -4.80363744
C       -2.70131041      -1.75024451      -3.90796182
C       -2.01883413      -1.55396068      -2.66213119
C       -1.21151707      -0.53313996      -2.19940900
C       -0.87301090      -0.87301090      -0.87301090
C       -1.48368543      -2.07245602      -0.59174515
I       -1.42916729      -3.11327683       1.16850725
O       -2.17561147      -2.49979174      -1.68854230
C       -3.27970631       1.27199382      -6.62041816
C       -2.34826942       1.82513342      -7.51167354
C       -1.89285225       3.13109539      -7.32857117
C       -2.36921214       3.88992270      -6.26063244
C       -3.31906832       3.35344647      -5.38827029
C       -3.78961406       2.04860791      -5.57232597
H       -3.75929583      -2.01990846      -6.12421192
H       -3.24063589      -2.70394357      -4.04727152
H       -0.92440384       0.34561703      -2.76133750
H       -1.97922246       1.23591021      -8.34833838
H       -1.16974564       3.55660882      -8.01998025
H       -2.01355343       4.90748741      -6.11562787
H       -3.69771353       3.96811344      -4.57506401
C       -4.83644545       1.59793550      -4.69219052
C       -5.71316674       1.22049736      -3.95507708
Br      -7.13075092       0.61021180      -2.76322698
O       -2.83150047       8.45896986       1.30677886
C       -2.25999823       7.40647387       1.03464133
N       -2.68630753       6.19888271       1.54923221
N       -2.14608636       5.00723773       1.16789010
C       -2.49132324       3.98482516       1.88336834
C       -1.94169246       2.69036800       1.60286554
C       -1.12237165       2.23203964       0.58965474
C       -0.87301090       0.87301090       0.87301090
C       -1.54459301       0.56945064       2.03384294
I       -1.58127782      -1.22418552       3.01684458
O       -2.21107220       1.67556232       2.47731100
C       -1.11448150       7.41297334       0.10067581
C       -1.36411914       7.87191022      -1.20121982
C       -0.33635008       7.89831055      -2.14433261
C        0.94305707       7.47304979      -1.79007085
C        1.20301128       7.04352455      -0.48662115
C        0.18028671       7.02546165       0.46815718
H       -3.45060844       6.23720332       2.21560444
H       -3.18206032       4.06871242       2.74107824
H       -0.75153153       2.82461538      -0.23602260
H       -2.36085003       8.20864808      -1.47784748
H       -0.53313865       8.25300278      -3.15302436
H        1.74473111       7.49130391      -2.52487891
H        2.21246565       6.73841587      -0.22128612
C        0.54408312       6.66166998       1.81311361
C        0.84876262       6.35699446       2.93951462
Br       1.34140359       5.86435990       4.76080978
O        3.16283413      -8.37587009       1.05854496
C        2.55545940      -7.33838342       0.80727060
N        2.90140263      -6.13834300       1.39467682
N        2.32361419      -4.95549337       1.04210663
C        2.58834072      -3.95326196       1.81791405
C        1.99184824      -2.67295237       1.57012539
C        1.19807470      -2.20479931       0.54119202
C        0.87301090      -0.87301090       0.87301090
C        1.47712411      -0.59437620       2.07638628
I        1.38592003       1.15116536       3.13918221
O        2.17412986      -1.68913642       2.50067924
C        1.45437369      -7.35236524      -0.17860828
C        1.78312095      -7.73829457      -1.48660599
C        0.80087583      -7.76644695      -2.47699476
C       -0.51157052      -7.41580845      -2.16431605
C       -0.84930654      -7.05976279      -0.85656413
C        0.12777342      -7.04070140       0.14485731
H        3.63612286      -6.17360352       2.09368983
H        3.24323376      -4.04622979       2.70238743
H        0.89261749      -2.77408363      -0.32657681
H        2.80587399      -8.01685624      -1.73107960
H        1.05890901      -8.06442505      -3.49021699
H       -1.27788186      -7.43547304      -2.93589729
H       -1.88277250      -6.81280436      -0.62536775
C       -0.31236727      -6.75683254       1.48623520
C       -0.68098509      -6.51909237       2.60963918
Br      -1.27700894      -6.13468663       4.42608841
