146
Properties=species:S:1:pos:R:3 pbc="F F F"
C        1.77685337       1.77685337      -1.77685337
C        1.45848747       3.03724594      -2.21392334
C        2.56264639       3.46602406      -2.98923842
C        3.51041996       2.44738379      -2.99192192
O        2.99832820       1.41355365      -2.24013044
C        4.77542268       2.43276893      -3.64052590
C        5.61906289       1.39229271      -3.59700393
C        5.52524562       0.07008948      -2.90480858
C        6.95525184      -0.46098119      -2.88378472
C        7.64719760       0.19572165      -4.04687921
C        8.72331212      -0.32925526      -4.64958653
C        9.42002420       0.18593892      -5.77589778
C        9.00916031       0.93699736      -6.87197115
C       10.12807240       1.14236390      -7.71601294
C       11.17083223       0.48678444      -7.11558823
O       10.75724970      -0.10185475      -5.96708660
C        6.91179064       1.45843914      -4.32859583
O        7.29162524       2.40598928      -4.98878599
H        0.54951029       3.58283642      -2.00399929
H        2.66547621       4.41597925      -3.49690944
H        5.05089251       3.31796049      -4.21137999
H        4.87781984      -0.60439681      -3.47743005
H        5.14204761       0.14483767      -1.88293559
H        7.45299456      -0.16771096      -1.95115189
H        6.96499671      -1.55422017      -2.94785177
H        9.14336845      -1.24609383      -4.24072380
H        8.00707465       1.30257717      -7.04906753
H       10.15759139       1.69428906      -8.64430809
C       12.51417780       0.41615870      -7.62943126
C       13.63922973       0.35700964      -8.05977480
Br      15.45834353       0.26137062      -8.75560391
C       -1.77685337      -1.77685337      -1.77685337
C       -1.72551902      -3.14600877      -1.83812896
C       -2.71663168      -3.52673090      -2.77454629
C       -3.33267666      -2.37150106      -3.24554794
O       -2.73025464      -1.30440782      -2.61734983
C       -4.38210323      -2.26762696      -4.19898732
C       -4.90405178      -1.10122602      -4.60308173
C       -4.60468304       0.30845583      -4.20391647
C       -5.81030889       1.11268932      -4.68043579
C       -6.39413557       0.32698924      -5.82265213
C       -7.13816565       0.88343734      -6.78891507
C       -7.69606356       0.24166310      -7.92746043
C       -7.28265881      -0.84554127      -8.68992875
C       -8.21308666      -1.03167048      -9.74169211
C       -9.14244783      -0.03542276      -9.59533430
O       -8.83556560       0.74063679      -8.52755274
C       -5.98391797      -1.08981520      -5.62509245
O       -6.45795410      -2.07882000      -6.14962640
H       -1.06193081      -3.79262580      -1.28178939
H       -2.96285087      -4.53490883      -3.08060520
H       -4.75994113      -3.19580132      -4.62449054
H       -3.69457111       0.65275199      -4.70903395
H       -4.47851016       0.43317124      -3.12448195
H       -6.55241337       1.19236660      -3.87638872
H       -5.51164096       2.12515078      -4.97213813
H       -7.37170859       1.94333332      -6.70962315
H       -6.40205098      -1.44666138      -8.51000698
H       -8.19514799      -1.79431260     -10.50672795
C      -10.27864494       0.17379511     -10.45491793
C      -11.23021002       0.34901507     -11.17481922
Br     -12.76881027       0.63233093     -12.33883872
C       -1.77685337       1.77685337       1.77685337
C       -3.12710505       1.62189344       1.96065826
C       -3.51483125       2.65140073       2.85167688
C       -2.38235278       3.39216312       3.17520977
O       -1.32340586       2.83439729       2.49420914
C       -2.29301780       4.52128967       4.03441003
C       -1.15192242       5.18195711       4.27448000
C        0.24507291       4.95213276       3.79308383
C        1.12365424       5.75020183       4.75150778
C        0.24440529       6.84684066       5.28736310
C        0.72582379       8.00216479       5.76730239
C       -0.01667854       9.11222953       6.25295283
C       -1.27144045       9.61733449       5.92935388
C       -1.49947239      10.77746290       6.70951395
C       -0.36507124      10.94950062       7.45863303
O        0.53315130       9.97295055       7.18268230
C       -1.16011861       6.36930418       5.16940282
O       -2.14398663       6.81518169       5.72723218
H       -3.75688600       0.86601396       1.51344604
H       -4.51276890       2.84148514       3.22411086
H       -3.21458466       4.86290684       4.50274148
H        0.35375385       5.33360614       2.77100078
H        0.53896512       3.89857384       3.81021215
H        1.45516948       5.11179191       5.57981307
H        2.01182733       6.13285253       4.23760311
H        1.80581974       8.12552455       5.81829362
H       -1.95632269       9.19589023       5.20650643
H       -2.37967003      11.40393503       6.71258348
C       -0.14360293      12.01854374       8.39762110
C        0.04187679      12.91386735       9.18402361
Br       0.34178180      14.36152990      10.45556996
C        1.77685337      -1.77685337       1.77685337
C        3.10706446      -1.56643451       2.03615778
C        3.50304822      -2.61988977       2.89497087
C        2.39529971      -3.42989231       3.12453365
O        1.34352932      -2.89006296       2.41842001
C        2.32197988      -4.60413077       3.92260685
C        1.20560165      -5.33041821       4.07233968
C       -0.17639011      -5.14416137       3.53237242
C       -1.05859662      -6.03127340       4.40537859
C       -0.15175227      -7.10996514       4.93158559
C       -0.59656301      -8.31002528       5.33018111
C        0.17697380      -9.40616314       5.79872396
C        1.46988796      -9.83306712       5.51517374
C        1.71854290     -11.01890780       6.24899854
C        0.55949813     -11.28325550       6.93045127
O       -0.37272586     -10.33845352       6.65675389
C        1.23080225      -6.55983925       4.90818412
O        2.20794793      -6.98543178       5.49302080
H        3.71855054      -0.75933908       1.65845638
H        4.49020428      -2.78023618       3.30792445
H        3.23600907      -4.92418671       4.42003720
H       -0.21613625      -5.47811289       2.48887643
H       -0.52381480      -4.10823819       3.58539748
H       -1.46164498      -5.45243186       5.24564862
H       -1.90038646      -6.42978598       3.82922878
H       -1.67011455      -8.48778631       5.32032666
H        2.16660116      -9.34294971       4.84916848
H        2.62820206     -11.60152244       6.26646404
C        0.34747186     -12.40798047       7.80431544
C        0.16989985     -13.34993764       8.53617668
Br      -0.11721906     -14.87300271       9.71953442
C       -0.00445707       0.01189536      -1.78238275
H       -0.66409135       0.67374010      -2.43557963
H        0.65740317      -0.63156657      -2.45157240
C       -0.90989263      -0.90692880      -0.91072765
C        0.90977584       0.90977584      -0.90977584
C       -0.00465871       1.77757030       0.00794375
H       -0.66225468       2.44313916      -0.64384735
H        0.64322798       2.43503045       0.67728295
C       -1.78241447       0.00034974      -0.00472694
H       -2.45427497      -0.65498947       0.64260836
H       -2.43311707       0.67328779      -0.65473579
C       -0.91132561       0.90220522       0.91563759
C       -0.01476271      -0.02253852       1.78660255
H       -0.67934791      -0.69751639       2.42135241
H        0.63392994       0.61504881       2.47327442
C        0.01484550      -1.77751727      -0.01636693
H        0.67870853      -2.42144646      -0.68295456
H       -0.62264859      -2.45592969       0.64226336
C        1.78714474       0.01002794       0.00389507
H        2.44202412       0.67113390       0.66197326
H        2.45385902      -0.65136977      -0.64189061
C        0.91606151      -0.90478549       0.90901405
