181
Properties=species:S:1:pos:R:3 pbc="F F F"
C        0.00000000       0.00000000       0.00000000
N        4.51349452       5.31634124      -0.75139606
C        4.58104155       5.64311412      -1.86271295
C        4.69276318       6.04163446      -3.21293131
C        5.06286574       5.22967078      -4.22031095
C        5.37517014       3.80566813      -4.15909934
C        4.49567285       2.85066319      -3.80315705
O        3.22191807       3.25560230      -3.37732996
C        2.49812438       2.44485452      -2.53129271
C        3.06871408       1.68546489      -1.50468036
C        2.26178529       0.88755057      -0.69069616
C        0.88174430       0.88174430      -0.88174430
C        0.30062278       1.67636869      -1.86927879
C        1.11135296       2.46282581      -2.69158413
N        4.74825260       1.50809139      -3.91165971
C        5.91234487       1.12445193      -4.32098226
C        6.17546294      -0.33563396      -4.44609771
C        7.38393336      -0.76267099      -4.82968145
C        8.42949422       0.18226284      -5.11968961
C        8.18541366       1.49636382      -5.03617871
N        6.94048372       1.98708418      -4.65521843
C        6.72840600       3.35569548      -4.60593433
O        7.57732926       4.20325733      -4.89073318
S        4.22478343       7.66121395      -3.63312054
O        5.12538768       8.17948011      -4.64927154
O        2.79295946       7.68075923      -3.87584271
C        4.50945115       8.64500696      -2.17264157
C        3.47236503       8.82921810      -1.25065992
C        3.68203989       9.63829814      -0.13259194
C        4.91326784      10.27059382       0.04449291
Br       5.18880057      11.37571228       1.55325614
C        5.93929439      10.10496953      -0.88735895
C        5.73831145       9.29254463      -2.00517237
H        5.15490944       5.63634691      -5.23032852
H        4.14108543       1.69593582      -1.33231475
H        2.72007480       0.27929481       0.08430511
H       -0.77673887       1.68810161      -2.00890880
H        0.66045984       3.08224135      -3.46218903
H        5.35828795      -1.01034373      -4.22123603
H        7.59517252      -1.82234773      -4.93251765
H        9.40539081      -0.19267980      -5.41121263
H        8.95903895       2.22697359      -5.25948826
H        2.50273843       8.35491879      -1.39116554
H        2.87963778       9.77548907       0.58860223
H        6.89226325      10.61231381      -0.75618490
H        6.53503365       9.18708179      -2.73910853
N       -2.14435225      -6.34105586      -2.09582371
C       -2.71347697      -6.26897036      -3.10442129
C       -3.42706801      -6.19916203      -4.32109891
C       -4.53647580      -5.46225437      -4.51411729
C       -5.20032060      -4.57163238      -3.56798464
C       -4.63882352      -3.46541307      -3.04525650
O       -3.29818782      -3.19738216      -3.35928036
C       -2.53393638      -2.44679931      -2.49353593
C       -2.63855236      -2.51958676      -1.10072021
C       -1.82475439      -1.72180944      -0.29346820
C       -0.88174430      -0.88174430      -0.88174430
C       -0.73580094      -0.84253678      -2.26793253
C       -1.56086501      -1.63102333      -3.07387456
N       -5.32600275      -2.54853903      -2.29346191
C       -6.56690375      -2.77664214      -2.01423317
C       -7.30940175      -1.77072770      -1.20579725
C       -8.58372061      -1.99895126      -0.86827196
C       -9.23808906      -3.21192318      -1.28143443
C       -8.58060293      -4.10378488      -2.03356836
N       -7.25938551      -3.90281426      -2.42058656
C       -6.62787719      -4.84311799      -3.21904062
O       -7.16088590      -5.87327301      -3.63716085
S       -2.78266908      -7.03558764      -5.70086121
O       -3.87160470      -7.60739710      -6.47513753
O       -1.82097119      -6.16911307      -6.35947714
C       -1.86279021      -8.41706784      -5.04724162
C       -0.49565008      -8.27380249      -4.78279049
C        0.23292667      -9.36940794      -4.31644871
C       -0.40205188     -10.59909013      -4.13822673
Br       0.59106842     -12.08353628      -3.51878885
C       -1.76029082     -10.74713333      -4.42419871
C       -2.49643151      -9.65393462      -4.88566231
H       -5.04165030      -5.49754762      -5.48238695
H       -3.35599156      -3.18463390      -0.62871053
H       -1.93603139      -1.76553563       0.78650253
H        0.01097427      -0.20219435      -2.72905146
H       -1.44915519      -1.60137267      -4.15436236
H       -6.77835842      -0.87077839      -0.92004344
H       -9.14480379      -1.27637943      -0.28415922
H      -10.26665541      -3.37917927      -0.97808896
H       -9.05951595      -5.02242684      -2.36355801
H        0.01146838      -7.32308484      -4.93720630
H        1.29337246      -9.25703173      -4.10286536
H       -2.24926701     -11.71068509      -4.30080987
H       -3.54944158      -9.78319539      -5.12858699
N       -6.24239363       1.52931115       2.80952704
C       -6.25318791       2.61509224       3.21858848
C       -6.27932736       3.92680305       3.74119854
C       -5.43866100       4.38939936       4.68478710
C       -4.32910015       3.68842201       5.32241545
C       -3.24078267       3.23852144       4.67018898
O       -3.20915670       3.37158801       3.27410563
C       -2.44234946       2.50619689       2.52572527
C       -2.28082724       1.15017207       2.82786002
C       -1.48372964       0.34061140       2.01569098
C       -0.88174430       0.88174430       0.88174430
C       -1.08066701       2.22025831       0.54534495
C       -1.86694617       3.03156195       1.36725478
N       -2.13288208       2.73487839       5.30024323
C       -2.14439526       2.62560001       6.58778379
C       -0.93301558       2.08726782       7.26564330
C       -0.93097834       1.92618579       8.59377970
C       -2.09397773       2.26903520       9.36843374
C       -3.17344616       2.78105283       8.76345720
N       -3.21625488       2.97950827       7.38702318
C       -4.34687042       3.53436662       6.80879876
O       -5.34820990       3.88774488       7.43536499
S       -7.40128962       5.06238386       3.05544445
O       -7.93493678       5.91342317       4.10577938
O       -6.78703395       5.67296944       1.88955800
C       -8.77462797       4.09175031       2.46072140
C       -8.77786202       3.63785888       1.13652216
C       -9.87504630       2.91912419       0.65875949
C      -10.96420652       2.67811622       1.49704601
Br     -12.45354655       1.71550343       0.84220673
C      -10.97022785       3.15101854       2.81037648
C       -9.87360959       3.86584243       3.29657642
H       -5.55682427       5.41116939       5.05359121
H       -2.76034426       0.71105272       3.69793902
H       -1.34197228      -0.70437990       2.27747211
H       -0.62757701       2.64077824      -0.34808371
H       -2.02261337       4.07508759       1.10718925
H       -0.07956422       1.84608365       6.64353238
H       -0.05653318       1.54052025       9.10828901
H       -2.07089548       2.11106946      10.44195871
H       -4.05917695       3.05480405       9.33151980
H       -7.94058635       3.83791556       0.47032084
H       -9.87500474       2.55895073      -0.36743085
H      -11.82738200       2.97673283       3.45664713
H       -9.89577971       4.25127026       4.31417400
N        0.78456174      -4.35207342       5.44459666
C        1.90382371      -4.44784877       5.73519615
C        3.26272982      -4.59377914       6.09081998
C        4.22727621      -5.02716064       5.25841061
C        4.10475042      -5.38582339       3.84936380
C        3.74548121      -4.52754609       2.87646579
O        3.37833816      -3.22628990       3.25022228
C        2.52935699      -2.50113434       2.44378029
C        1.45738338      -3.06058986       1.74088609
C        0.64372852      -2.25310040       0.94320311
C        0.88174430      -0.88174430       0.88174430
C        1.91630317      -0.30916920       1.62079789
C        2.73773080      -1.12114503       2.40688708
N        3.79741071      -4.82979770       1.54079528
C        4.15259438      -6.02020671       1.18497797
C        4.21657362      -6.33761168      -0.26825860
C        4.54298155      -7.57291966      -0.66495738
C        4.83033429      -8.59505761       0.30605477
C        4.80206112      -8.30316194       1.61273312
N        4.48179154      -7.02934470       2.07165010
C        4.48854317      -6.76875781       3.43273482
O        4.77398387      -7.59765842       4.29967748
S        3.75609972      -4.08568403       7.67733418
O        4.75850719      -5.00353330       8.19209885
O        4.04840709      -2.66357579       7.63757852
C        2.32262840      -4.28424927       8.72022201
C        1.44395504      -3.20930342       8.89898460
C        0.34883630      -3.35115109       9.75294259
C        0.15216696      -4.55285146      10.43435032
Br      -1.32489942      -4.73640728      11.59974885
C        1.04173962      -5.61646392      10.27341932
C        2.13618653      -5.48340338       9.41643853
H        5.24736396      -5.14105394       5.63316697
H        1.24876248      -4.12515720       1.79541632
H       -0.16770730      -2.70415267       0.37861912
H        2.09318990       0.76230970       1.58939135
H        3.54491857      -0.67694031       2.98303134
H        3.99605554      -5.53661491      -0.96349019
H        4.60073601      -7.82396150      -1.71935507
H        5.07463698      -9.59301160      -0.04372494
H        5.02451373      -9.05868678       2.36230029
H        1.60072414      -2.26215534       8.38594327
H       -0.33903007      -2.51936060       9.88619410
H        0.89603853      -6.54617144      10.81855199
H        2.83810319      -6.30888428       9.31423650
