189
Properties=species:S:1:pos:R:3 pbc="F F F"
C        0.00000000       0.00000000       0.00000000
N        4.51349452       5.31634124      -0.75139606
C        4.58104155       5.64311412      -1.86271295
C        4.69276318       6.04163446      -3.21293131
C        5.06286574       5.22967078      -4.22031095
C        5.37517014       3.80566813      -4.15909934
C        4.49567285       2.85066319      -3.80315705
O        3.22191807       3.25560230      -3.37732996
C        2.49812438       2.44485452      -2.53129271
C        3.06871408       1.68546489      -1.50468036
C        2.26178529       0.88755057      -0.69069616
C        0.88174430       0.88174430      -0.88174430
C        0.30062278       1.67636869      -1.86927879
C        1.11135296       2.46282581      -2.69158413
N        4.74825260       1.50809139      -3.91165971
C        5.91234487       1.12445193      -4.32098226
C        6.17546294      -0.33563396      -4.44609771
C        7.38393336      -0.76267099      -4.82968145
C        8.42949422       0.18226284      -5.11968961
C        8.18541366       1.49636382      -5.03617871
N        6.94048372       1.98708418      -4.65521843
C        6.72840600       3.35569548      -4.60593433
O        7.57732926       4.20325733      -4.89073318
S        4.22478343       7.66121395      -3.63312054
O        5.12538768       8.17948011      -4.64927154
O        2.79295946       7.68075923      -3.87584271
C        4.50945115       8.64500696      -2.17264157
C        3.47236503       8.82921810      -1.25065992
C        3.68203989       9.63829814      -0.13259194
C        4.91326784      10.27059382       0.04449291
C        5.93929439      10.10496953      -0.88735895
C        5.73831145       9.29254463      -2.00517237
H        5.15490944       5.63634691      -5.23032852
H        4.14108543       1.69593582      -1.33231475
H        2.72007480       0.27929481       0.08430511
H       -0.77673887       1.68810161      -2.00890880
H        0.66045984       3.08224135      -3.46218903
H        5.35828795      -1.01034373      -4.22123603
H        7.59517252      -1.82234773      -4.93251765
H        9.40539081      -0.19267980      -5.41121263
H        8.95903895       2.22697359      -5.25948826
H        2.50273843       8.35491879      -1.39116554
H        2.87963778       9.77548907       0.58860223
H        6.89226325      10.61231381      -0.75618490
H        6.53503365       9.18708179      -2.73910853
C        5.12315431      11.11241545       1.19379009
C        5.29893423      11.81744107       2.15632647
Br       5.58315549      12.95740787       3.71266640
N       -1.63470463      -6.27704842      -2.66947876
C       -2.34067361      -6.16295538      -3.58323963
C       -3.21683516      -6.04588038      -4.68461340
C       -4.42245860      -5.44953133      -4.64085753
C       -5.05286323      -4.77774676      -3.50932763
C       -4.56194935      -3.67594355      -2.91160018
O       -3.31860964      -3.19173670      -3.34450399
C       -2.53886613      -2.45309154      -2.48231394
C       -2.44289856      -2.70589308      -1.11006770
C       -1.62807385      -1.90706459      -0.30489359
C       -0.88174430      -0.88174430      -0.88174430
C       -0.93214250      -0.65711722      -2.25701053
C       -1.75898066      -1.44850434      -3.05827790
N       -5.24497384      -2.95823518      -1.96479467
C       -6.39977354      -3.38539422      -1.57261130
C       -7.14013742      -2.59446699      -0.55132229
C       -8.31982710      -3.03329350      -0.09782322
C       -8.87431598      -4.26588279      -0.59124790
C       -8.22353492      -4.96300739      -1.53141387
N       -7.00121613      -4.53864646      -2.04292374
C       -6.37649699      -5.28140107      -3.03213774
O       -6.83423476      -6.31705536      -3.52002965
S       -2.67123913      -6.61504910      -6.23282970
O       -3.77920749      -7.23317799      -6.94175385
O       -1.91929953      -5.55277685      -6.87748502
C       -1.51185998      -7.92632536      -5.88891433
C       -0.14854071      -7.63052733      -5.77317503
C        0.76289047      -8.66435041      -5.55147004
C        0.31019544      -9.98160950      -5.46795468
C       -1.04673564     -10.27831137      -5.60657586
C       -1.96465057      -9.24847217      -5.82290572
H       -5.04716603      -5.43713508      -5.53728377
H       -3.00425846      -3.51438112      -0.65069641
H       -1.58484296      -2.09469951       0.76447798
H       -0.33748695       0.12977611      -2.71256071
H       -1.80016940      -1.27458971      -4.13013111
H       -6.68679362      -1.67125469      -0.21113194
H       -8.87845260      -2.46934393       0.64245409
H       -9.82431514      -4.60711428      -0.19249422
H       -8.62941337      -5.89218339      -1.92390403
H        0.21510821      -6.60789768      -5.85603329
H        1.82137713      -8.43469409      -5.45320767
H       -1.39524098     -11.30736624      -5.55815475
H       -3.01780649      -9.49020025      -5.95321723
C        1.25406037     -11.04686407      -5.24897597
C        2.04454725     -11.93901478      -5.06558130
Br       3.32269769     -13.38154702      -4.76904763
N       -5.87699872       3.69295482       1.01127828
C       -5.76105883       4.40842579       1.91738400
C       -5.64665942       5.27082145       3.02984807
C       -5.36298012       4.86776336       4.28210398
C       -5.07663958       3.51506380       4.74823424
C       -4.02202956       2.78134165       4.34612188
O       -3.19261197       3.31410638       3.34813198
C       -2.46743285       2.46508029       2.54175847
C       -2.94156428       1.23037346       2.08692159
C       -2.14022760       0.42845341       1.27135102
C       -0.88174430       0.88174430       0.88174430
C       -0.42346325       2.13428895       1.28851805
C       -1.22118569       2.92853199       2.11604522
N       -3.66965280       1.58474008       4.91361082
C       -4.41661373       1.09416343       5.84700190
C       -4.02133995      -0.20110422       6.46569097
C       -4.79656541      -0.75218244       7.40656086
C       -6.01011895      -0.09975490       7.82108262
C       -6.35149707       1.07977476       7.28668435
N       -5.56949524       1.69751345       6.31577765
C       -5.95135933       2.92957102       5.80910546
O       -6.95552978       3.54929272       6.16649727
S       -5.77716321       6.98215044       2.75980428
O       -6.49131835       7.59606505       3.86675593
O       -4.46950176       7.49273489       2.38732475
C       -6.82637871       7.17107029       1.32965067
C       -6.25114181       7.24546007       0.05564118
C       -7.06978161       7.44114392      -1.05799555
C       -8.44786784       7.58088413      -0.88938323
C       -9.01824772       7.52974563       0.38362951
C       -8.20590548       7.32864173       1.50148124
H       -5.32867358       5.60519896       5.08771234
H       -3.92849034       0.87367228       2.36717338
H       -2.50803325      -0.54175340       0.94878465
H        0.54979888       2.49849828       0.97157215
H       -0.86555442       3.90465027       2.43468552
H       -3.09816568      -0.65464367       6.12565824
H       -4.52404911      -1.69297713       7.87427046
H       -6.62902482      -0.57838660       8.57328541
H       -7.25971968       1.59345813       7.59232299
H       -5.17513087       7.15645719      -0.08276530
H       -6.62472759       7.49087545      -2.04907841
H      -10.09051274       7.65593540       0.51431383
H       -8.65531191       7.31329546       2.49261661
C       -9.28855079       7.79243710      -2.03920822
C       -9.99262276       7.96961272      -3.00218666
Br     -11.13104759       8.25609071      -4.55924134
N        0.74419869      -4.55639028       5.28064285
C        1.85299101      -4.61660042       5.61727719
C        3.20040883      -4.71941951       6.02750061
C        4.21882098      -5.07234952       5.22167697
C        4.17393112      -5.37171510       3.79429140
C        3.81865065      -4.48659121       2.84425123
O        3.37700016      -3.22077912       3.25707106
C        2.53178950      -2.49730876       2.44517336
C        1.51779578      -3.07028715       1.67077640
C        0.70372765      -2.26350992       0.87279446
C        0.88174430      -0.88174430       0.88174430
C        1.85623334      -0.29893529       1.69110163
C        2.67876536      -1.10932702       2.47767052
N        3.94213048      -4.72541649       1.50045673
C        4.36603958      -5.88193235       1.10980713
C        4.50733293      -6.13002631      -0.35143254
C        4.90633290      -7.33074687      -0.78613594
C        5.19735218      -8.38244274       0.15165175
C        5.09920948      -8.15161182       1.46713488
N        4.70189005      -6.91501346       1.96588283
C        4.63776281      -6.71637766       3.33589533
O        4.92262455      -7.57058016       4.17811505
S        3.60093544      -4.26287690       7.65530559
O        4.62066294      -5.15877644       8.17469995
O        3.82989332      -2.82908821       7.69057986
C        2.13405292      -4.57053680       8.62250995
C        1.20060388      -3.54393656       8.80770262
C        0.07703076      -3.77174354       9.60415569
C       -0.09431030      -5.01051118      10.22316786
C        0.84872898      -6.02613628      10.05675761
C        1.97216126      -5.80699116       9.25687603
H        5.22580538      -5.15876113       5.63701836
H        1.35550262      -4.14427936       1.66955402
H       -0.06115863      -2.72326892       0.25295420
H        1.98553827       0.77952941       1.71426269
H        3.43922101      -0.65711066       3.10855854
H        4.28108214      -5.30864389      -1.02054577
H        5.02110138      -7.53096740      -1.84672634
H        5.50160843      -9.35196710      -0.22965189
H        5.32297147      -8.92999235       2.19253698
H        1.33636412      -2.56858638       8.34387224
H       -0.65298509      -2.97747754       9.74203218
H        0.72183173      -6.98505558      10.55387466
H        2.71456653      -6.59575867       9.15089877
C       -1.24941499      -5.23913278      11.05206188
C       -2.21681517      -5.43060337      11.74626063
Br      -3.78101945      -5.74019512      12.86872129
