157
Properties=species:S:1:pos:R:3 pbc="F F F"
C        0.00000000       0.00000000       0.00000000
C        0.88082603       0.88082603      -0.88082603
C        0.57308840       2.22471047      -1.04562059
C        1.38697780       3.03153944      -1.85079036
C        2.52064038       2.51648653      -2.50903180
C        2.80149529       1.15142619      -2.32281938
C        1.99166455       0.34000524      -1.51574931
N        3.34678831       3.36704141      -3.34264803
C        4.15045955       2.81244933      -4.33755546
O        4.05875194       1.67571412      -4.80133943
N        5.08390223       3.64153767      -4.89871813
C        4.84082913       4.95779413      -5.13977745
O        5.34448339       5.53793169      -6.09354839
C        3.87595881       5.57064670      -4.20548977
C        3.50177583       6.84124903      -4.45646413
C        2.53042665       7.65661968      -3.79629206
C        1.34168471       7.22961335      -3.24811646
N        0.69360421       8.32252261      -2.73402639
H       -0.19223907       8.29868627      -2.24760424
C        1.40649662       9.46834338      -3.00038355
C        1.10646530      10.80244782      -2.69996007
C        2.02143234      11.77888344      -3.10346175
C        3.18831827      11.42285427      -3.77410606
C        3.48148236      10.08600226      -4.06366921
C        2.56913901       9.08226881      -3.67146124
C        3.39724267       4.73836732      -3.07239785
O        3.16904599       5.24609981      -1.97556552
H       -0.29317655       2.66103295      -0.55538608
H        1.09437594       4.07267621      -1.95849792
H        3.67311343       0.68068252      -2.77054404
H        2.24682658      -0.70932268      -1.38957367
H        5.62634227       3.19782949      -5.62844845
H        3.98476702       7.34407147      -5.29638624
H        0.89359941       6.25076531      -3.15803138
H        0.19625058      11.07657087      -2.17608140
H        1.80920069      12.82288502      -2.88579539
H        4.39649272       9.82055040      -4.58363234
C        4.11213922      12.45018189      -4.18000362
C        4.88583926      13.31056877      -4.51994283
Br       6.13684678      14.70174158      -5.06959578
C       -0.88082603      -0.88082603      -0.88082603
C       -1.23856751      -0.45259861      -2.15225334
C       -2.04300042      -1.26619525      -2.96011192
C       -2.50868334      -2.51968697      -2.51778841
C       -2.13014037      -2.92107741      -1.22452308
C       -1.32284231      -2.11175041      -0.41282638
N       -3.34514448      -3.34411289      -3.36722039
C       -4.17376350      -4.31678884      -2.80991201
O       -4.50424649      -4.40435018      -1.62720883
N       -4.72723075      -5.21655534      -3.68037193
C       -5.14995618      -4.86430804      -4.92413648
O       -6.10703999      -5.41401869      -5.45490479
C       -4.40550692      -3.73359868      -5.51298968
C       -4.84660009      -3.25806387      -6.69482504
C       -4.39778323      -2.13225262      -7.45330254
C       -3.93304706      -0.93890074      -6.94746672
N       -3.62712433      -0.11990692      -8.00312196
H       -3.23939811       0.81039747      -7.92505081
C       -3.95154584      -0.73243840      -9.19123931
C       -3.84816963      -0.25677155     -10.50393201
C       -4.26579794      -1.10346190     -11.53451770
C       -4.75932592      -2.37414918     -11.25180350
C       -4.85239097      -2.84202465      -9.93673821
C       -4.44233465      -2.00221849      -8.87831592
C       -3.23837379      -3.21396914      -4.75566491
O       -2.24168287      -2.80195767      -5.34707079
H       -0.90046068       0.50828834      -2.53107015
H       -2.30627308      -0.87855171      -3.94072527
H       -2.42156978      -3.88582005      -0.81695016
H       -1.04437927      -2.46109893       0.57840063
H       -5.33559365      -5.88754046      -3.22948610
H       -5.68422742      -3.78196250      -7.15903482
H       -3.77426322      -0.59101325      -5.93711964
H       -3.46202494       0.73411659     -10.72099449
H       -4.19967802      -0.75559241     -12.56261068
H       -5.23520180      -3.83624162      -9.72923205
C       -5.18450379      -3.22439773     -12.33342320
C       -5.54059026      -3.93648089     -13.23927970
Br      -6.11635195      -5.08785914     -14.70397305
C       -0.88082603       0.88082603       0.88082603
C       -2.08110799       0.38759313       1.37471834
C       -2.88467391       1.19726757       2.18736611
C       -2.51081778       2.51331791       2.52202301
C       -1.29108131       2.98189164       2.00276792
C       -0.48165943       2.17464315       1.19111652
N       -3.35953148       3.33708753       3.35985875
C       -3.25857431       4.72673143       3.31515861
O       -2.70716605       5.39110673       2.43753272
N       -3.89858293       5.41593465       4.30964045
C       -5.10125419       5.02614043       4.81100608
O       -5.92255140       5.84130722       5.21210485
C       -5.33341826       3.56952434       4.74915268
C       -6.55046513       3.12616227       5.12286159
C       -7.09474769       1.80464117       5.08394953
C       -6.84607888       0.84626272       4.12707292
N       -7.57691335      -0.26951974       4.44275960
H       -7.56655013      -1.13795942       3.92546073
C       -8.35501700      -0.03161764       5.55182420
C       -9.27626389      -0.86494839       6.19755769
C       -9.94120499      -0.35234737       7.31491991
C       -9.68255879       0.94033083       7.76238899
C       -8.75521337       1.76246581       7.11347465
C       -8.07554697       1.26872877       5.97859332
C       -4.21174379       2.71698860       4.27927544
O       -4.03098954       1.59945468       4.76026711
H       -2.40611831      -0.62245679       1.13958097
H       -3.82068232       0.76886851       2.53599924
H       -0.91399586       3.97449068       2.23585345
H        0.45894709       2.57024359       0.81578108
H       -3.81226460       6.42002498       4.22033063
H       -7.25482777       3.86948849       5.50090847
H       -6.20841864       0.83889905       3.25507841
H       -9.47489726      -1.87267520       5.84668079
H      -10.66485403      -0.97838720       7.83141427
H       -8.55923163       2.76721264       7.47423120
C      -10.38403987       1.44324684       8.91503801
C      -10.97153027       1.86443901       9.88038157
Br     -11.92145256       2.54547112      11.44126046
C        0.88082603      -0.88082603       0.88082603
C        1.20537078      -2.16711640       0.47093228
C        2.01856464      -2.97105247       1.27969048
C        2.52217232      -2.51174903       2.51223736
C        2.17178137      -1.20587930       2.89808020
C        1.36037837      -0.39602048       2.09102025
N        3.35751840      -3.36168026       3.33727910
C        3.46747872      -3.12613449       4.70685113
O        2.71968642      -2.42620385       5.38991523
N        4.46357056      -3.79841962       5.36216784
C        4.80606064      -5.07810767       5.05423240
O        5.21068504      -5.85622675       5.90905168
C        4.57126627      -5.43877481       3.64205420
C        4.78043208      -6.72445021       3.29460670
C        4.55301103      -7.38380293       2.04652443
C        3.52924961      -7.12825758       1.16190733
N        3.65675995      -7.98985330       0.10353995
H        3.05513215      -8.00755158      -0.70863229
C        4.70629307      -8.85331890       0.31561159
C        5.17205066      -9.91119525      -0.47437272
C        6.26906623     -10.63760119      -0.00288988
C        6.87107913     -10.30631541       1.20788407
C        6.40158100      -9.24312462       1.98644822
C        5.29057170      -8.49853763       1.53375974
C        4.12295571      -4.35961405       2.72543808
O        4.49984183      -4.33603294       1.55483656
H        0.83676294      -2.55958932      -0.47310977
H        2.23094115      -3.97445338       0.92015554
H        2.54144712      -0.76327788       3.81961499
H        1.11858205       0.61162319       2.42011871
H        4.48783586      -3.60904982       6.35573453
H        5.16576994      -7.39116203       4.06829277
H        2.72521074      -6.40680834       1.17037702
H        4.70099955     -10.16627260      -1.41836930
H        6.64706880     -11.46684872      -0.59603641
H        6.88185370      -8.99198218       2.92683958
C        7.99858046     -11.07348621       1.67025805
C        8.94286283     -11.71599176       2.05749627
Br      10.46968755     -12.75486888       2.68362771
