170
Properties=species:S:1:pos:R:3 pbc="F F F"
C        1.79073005       1.79073005      -1.79073005
C        1.48299243       3.13461450      -1.95552461
C        2.29688182       3.94144346      -2.76069438
C        3.43054441       3.42639055      -3.41893583
C        3.71139932       2.06133022      -3.23272340
C        2.90156857       1.24990927      -2.42565333
N        4.25669234       4.27694544      -4.25255206
C        5.06036357       3.72235336      -5.24745949
O        4.96865597       2.58561814      -5.71124346
N        5.99380625       4.55144169      -5.80862215
C        5.75073315       5.86769815      -6.04968147
O        6.25438742       6.44783572      -7.00345241
C        4.78586284       6.48055072      -5.11539380
C        4.41167985       7.75115306      -5.36636816
C        3.44033067       8.56652370      -4.70619609
C        2.25158874       8.13951737      -4.15802048
N        1.60350823       9.23242663      -3.64393041
H        0.71766496       9.20859029      -3.15750826
C        2.31640065      10.37824741      -3.91028757
C        2.01636933      11.71235185      -3.60986409
C        2.93133636      12.68878747      -4.01336578
C        4.09822230      12.33275829      -4.68401009
Br       5.31276645      13.68338231      -5.21764219
C        4.39138638      10.99590628      -4.97357324
C        3.47904304       9.99217284      -4.58136526
C        4.30714670       5.64827135      -3.98230187
O        4.07895001       6.15600384      -2.88546955
H        0.61672748       3.57093698      -1.46529011
H        2.00427996       4.98258024      -2.86840194
H        4.58301745       1.59058654      -3.68044807
H        3.15673060       0.20058135      -2.29947770
H        6.53624630       4.10773351      -6.53835247
H        4.89467105       8.25397550      -6.20629026
H        1.80350343       7.16066933      -4.06793540
H        1.10615460      11.98647489      -3.08598543
H        2.71910471      13.73278905      -3.79569942
H        5.30639675      10.73045442      -5.49353636
C       -1.79073005      -1.79073005      -1.79073005
C       -1.21009339      -2.63829872      -2.72473943
C       -2.02162628      -3.44936431      -3.52802908
C       -3.42575114      -3.43092825      -3.41919140
C       -3.98057732      -2.55925905      -2.46561656
C       -3.17270033      -1.74730085      -1.65713000
N       -4.24812155      -4.27399556      -4.26407272
C       -5.58113760      -3.94451968      -4.50451914
O       -6.11144172      -2.85207426      -4.30200158
N       -6.35175328      -4.91306398      -5.08905283
C       -5.87101646      -5.74874115      -6.04835517
O       -6.58722787      -6.17070913      -6.94773855
C       -4.42416903      -6.02032616      -5.93731217
C       -3.85950580      -6.74786860      -6.92182666
C       -2.48775825      -7.08946497      -7.13582724
C       -1.39540251      -6.30013791      -6.85358617
N       -0.26818316      -6.98481938      -7.22686274
H        0.67973817      -6.65371214      -7.10978955
C       -0.60958943      -8.18060863      -7.81473758
C        0.20651620      -9.17136659      -8.37373488
C       -0.42008344     -10.29634312      -8.91706305
C       -1.80676986     -10.41706215      -8.89115867
Br      -2.62028668     -11.95403629      -9.63946797
C       -2.61260791      -9.42395128      -8.32430672
C       -2.00263694      -8.27522899      -7.77471521
C       -3.71295187      -5.46893534      -4.75583270
O       -2.79564824      -6.09619989      -4.22857527
H       -0.13036643      -2.68213106      -2.84045706
H       -1.51849603      -4.08379899      -4.25296711
H       -5.05304395      -2.50447500      -2.29653312
H       -3.63913406      -1.09253834      -0.92511725
H       -7.30399288      -4.61750478      -5.26083463
H       -4.52393487      -7.13384597      -7.69715596
H       -1.30313029      -5.31983364      -6.40914423
H        1.28744419      -9.07460045      -8.39145866
H        0.19157701     -11.07801938      -9.36115081
H       -3.69252718      -9.53132398      -8.30653638
C       -1.79073005       1.79073005       1.79073005
C       -3.17185892       1.65516989       1.74610273
C       -3.97713313       2.46187182       2.56001472
C       -3.42412635       3.42007724       3.43166719
C       -2.02274853       3.53303977       3.44966464
C       -1.21196153       2.72613976       2.63902988
N       -4.27533274       4.24923698       4.26162012
C       -3.81089222       5.46967044       4.74961376
O       -2.82857941       6.09184317       4.34509498
N       -4.56630015       6.06249551       5.72507444
C       -5.92563635       6.01857599       5.72390044
O       -6.59670023       6.94257414       6.16640117
C       -6.48641250       4.81296129       5.08243357
C       -7.82630446       4.75909775       4.94379885
C       -8.64030444       3.78141210       4.29133393
C       -8.31851004       3.07905510       3.15156145
N       -9.37483458       2.26184686       2.84318383
H       -9.40226490       1.61300452       2.06849410
C      -10.41160388       2.47060447       3.72272728
C      -11.68509001       1.89034040       3.76315486
C      -12.55270989       2.30226249       4.77851722
C      -12.14972965       3.25209804       5.71316299
Br     -13.35347808       3.78765009       7.07266277
C      -10.87251157       3.82094419       5.66741014
C       -9.98050828       3.42511886       4.64695400
C       -5.53092391       3.76466047       4.64213554
O       -5.83045640       2.57397470       4.71599230
H       -3.63825443       0.92792975       1.08677038
H       -5.05224627       2.32633951       2.47667636
H       -1.51343536       4.22635474       4.11426197
H       -0.13152556       2.83749218       2.68777190
H       -4.19813658       6.95417119       6.03002452
H       -8.40274124       5.58240112       5.36979445
H       -7.43389585       3.06660405       2.53160827
H      -11.99581332       1.14932527       3.03347634
H      -13.54904222       1.86966032       4.82889065
H      -10.56850133       4.55770278       6.40418342
C        1.79073005      -1.79073005       1.79073005
C        2.53145124      -1.22293166       2.81874864
C        3.33492921      -2.03537624       3.62871422
C        3.41868528      -3.42722219       3.42996331
C        2.65809568      -3.96870160       2.37865566
C        1.85010142      -3.16034831       1.56668144
N        4.26075650      -4.24971229       4.27572104
C        4.71537340      -5.48851557       3.82628745
O        4.71652040      -5.88741894       2.66157822
N        5.27951299      -6.30772255       4.76663456
C        6.05994704      -5.83362347       5.77454227
O        6.99115739      -6.48864679       6.22587136
C        5.72419376      -4.45975085       6.19786274
C        6.53093983      -3.88557091       7.11269032
C        6.51679659      -2.55656730       7.63968657
C        6.18565442      -1.40915829       6.95431388
N        6.32051253      -0.34800304       7.81134971
H        6.11710926       0.61526258       7.58191683
C        6.80340720      -0.77506725       9.02646118
C        7.12660587      -0.03917231      10.17280709
C        7.61236257      -0.74257749      11.27854955
C        7.75891979      -2.12615932      11.22991157
Br       8.42275803      -3.04458790      12.74644501
C        7.42689188      -2.85256485      10.08140917
C        6.94001429      -2.16306984       8.94949701
C        4.53141226      -3.82560008       5.58070757
O        3.81526626      -3.06971414       6.23544301
H        2.49504769      -0.15284546       3.00506140
H        3.90556371      -1.53991192       4.40978651
H        2.64231411      -5.03648187       2.17525608
H        1.26997896      -3.61781366       0.76899703
H        5.61140345      -7.18457085       4.38635799
H        7.33739603      -4.49947729       7.51806349
H        5.85187692      -1.23920256       5.94102869
H        7.01025001       1.03940188      10.20776679
H        7.87469257      -0.19331916      12.17958145
H        7.54181254      -3.93157719      10.05699780
C       -0.00445707       0.01189536      -1.78238275
H       -0.66409135       0.67374010      -2.43557963
H        0.65740317      -0.63156657      -2.45157240
C       -0.90989263      -0.90692880      -0.91072765
C        0.90977584       0.90977584      -0.90977584
C       -0.00465871       1.77757030       0.00794375
H       -0.66225468       2.44313916      -0.64384735
H        0.64322798       2.43503045       0.67728295
C       -1.78241447       0.00034974      -0.00472694
H       -2.45427497      -0.65498947       0.64260836
H       -2.43311707       0.67328779      -0.65473579
C       -0.91132561       0.90220522       0.91563759
C       -0.01476271      -0.02253852       1.78660255
H       -0.67934791      -0.69751639       2.42135241
H        0.63392994       0.61504881       2.47327442
C        0.01484550      -1.77751727      -0.01636693
H        0.67870853      -2.42144646      -0.68295456
H       -0.62264859      -2.45592969       0.64226336
C        1.78714474       0.01002794       0.00389507
H        2.44202412       0.67113390       0.66197326
H        2.45385902      -0.65136977      -0.64189061
C        0.91606151      -0.90478549       0.90901405
