178
Properties=species:S:1:pos:R:3 pbc="F F F"
C        1.79073005       1.79073005      -1.79073005
C        1.48299243       3.13461450      -1.95552461
C        2.29688182       3.94144346      -2.76069438
C        3.43054441       3.42639055      -3.41893583
C        3.71139932       2.06133022      -3.23272340
C        2.90156857       1.24990927      -2.42565333
N        4.25669234       4.27694544      -4.25255206
C        5.06036357       3.72235336      -5.24745949
O        4.96865597       2.58561814      -5.71124346
N        5.99380625       4.55144169      -5.80862215
C        5.75073315       5.86769815      -6.04968147
O        6.25438742       6.44783572      -7.00345241
C        4.78586284       6.48055072      -5.11539380
C        4.41167985       7.75115306      -5.36636816
C        3.44033067       8.56652370      -4.70619609
C        2.25158874       8.13951737      -4.15802048
N        1.60350823       9.23242663      -3.64393041
H        0.71766496       9.20859029      -3.15750826
C        2.31640065      10.37824741      -3.91028757
C        2.01636933      11.71235185      -3.60986409
C        2.93133636      12.68878747      -4.01336578
C        4.09822230      12.33275829      -4.68401009
C        4.39138638      10.99590628      -4.97357324
C        3.47904304       9.99217284      -4.58136526
C        4.30714670       5.64827135      -3.98230187
O        4.07895001       6.15600384      -2.88546955
H        0.61672748       3.57093698      -1.46529011
H        2.00427996       4.98258024      -2.86840194
H        4.58301745       1.59058654      -3.68044807
H        3.15673060       0.20058135      -2.29947770
H        6.53624630       4.10773351      -6.53835247
H        4.89467105       8.25397550      -6.20629026
H        1.80350343       7.16066933      -4.06793540
H        1.10615460      11.98647489      -3.08598543
H        2.71910471      13.73278905      -3.79569942
H        5.30639675      10.73045442      -5.49353636
C        5.02204324      13.36008591      -5.08990765
C        5.79574328      14.22047279      -5.42984686
Br       7.04675081      15.61164561      -5.97949980
C       -1.79073005      -1.79073005      -1.79073005
C       -1.49801055      -1.93477987      -3.14034112
C       -2.30577418      -2.74841125      -3.94483424
C       -3.42107887      -3.43201071      -3.42278121
C       -3.69043471      -3.26168211      -2.05333611
C       -2.88349889      -2.45061325      -1.24301904
N       -4.24788793      -4.26471372      -4.27358819
C       -5.56382409      -4.55202229      -3.91433004
O       -6.23571185      -3.96104109      -3.06876463
N       -6.18650546      -5.54244398      -4.62492065
C       -5.99199704      -5.71642022      -5.95969551
O       -6.88379741      -6.13403942      -6.68783873
C       -4.66074265      -5.28822410      -6.43284061
C       -4.44137485      -5.32535003      -7.76247619
C       -3.30531359      -4.89269711      -8.51503976
C       -2.50587995      -3.80676440      -8.23648224
N       -1.54419711      -3.72585771      -9.20981045
H       -0.80443911      -3.03764588      -9.24167852
C       -1.74495245      -4.69963712     -10.16034606
C       -1.03642246      -4.96347868     -11.33868412
C       -1.47328238      -6.02739655     -12.13281068
C       -2.57155276      -6.79282050     -11.75061742
C       -3.26857378      -6.52453031     -10.56776182
C       -2.84965510      -5.45074780      -9.75217824
C       -3.67827827      -4.85096680      -5.40847484
O       -2.48036605      -5.09361638      -5.54644096
H       -0.64662791      -1.42398821      -3.58233844
H       -2.04224097      -2.81596586      -4.99705531
H       -4.51379996      -3.77605917      -1.56419293
H       -3.11945201      -2.35097115      -0.18636649
H       -7.14470037      -5.69788618      -4.33974573
H       -5.24235066      -5.72603546      -8.38655069
H       -2.51426380      -3.08615197      -7.43169240
H       -0.17994837      -4.36536731     -11.63329924
H       -0.94237517      -6.24992128     -13.05529673
H       -4.12099400      -7.13095009     -10.27844344
C       -3.00092411      -7.88170834     -12.58940435
C       -3.36052262      -8.79365190     -13.29188841
Br      -3.94196299     -10.26818751     -14.42774571
C       -1.79073005       1.79073005       1.79073005
C       -3.17047386       1.76538730       1.63727038
C       -3.97631079       2.57146438       2.45124450
C       -3.42499585       3.41956101       3.43131393
C       -2.02467981       3.42277487       3.55799826
C       -1.21362690       2.61584250       2.74766177
N       -4.27614142       4.25036063       4.25968779
C       -3.76465022       5.39345425       4.87207194
O       -2.71219918       5.96549019       4.58782820
N       -4.54860417       5.97146059       5.83380533
C       -5.90347413       6.03247135       5.73216730
O       -6.53888374       6.97139673       6.19539507
C       -6.49790001       4.92248966       4.96141769
C       -7.82356557       4.98193324       4.72370226
C       -8.65268955       4.11889249       3.94146842
C       -8.29513183       3.47706304       2.77693173
N       -9.38025717       2.76768364       2.33192446
H       -9.39426561       2.17987052       1.50962739
C      -10.46406849       2.99224744       3.14861969
C      -11.77507269       2.51030021       3.05321237
C      -12.68660996       2.91418834       4.03269131
C      -12.28993765       3.76100689       5.06404613
C      -10.97562787       4.23169249       5.15354555
C      -10.03830026       3.84229962       4.17198125
C       -5.58868551       3.83790422       4.51113018
O       -5.97729090       2.67157360       4.47155890
H       -3.63549796       1.12514953       0.89230708
H       -5.04874929       2.52536574       2.28114710
H       -1.51980351       4.02559632       4.30865223
H       -0.13495978       2.63995634       2.88187353
H       -4.14225382       6.80809606       6.23198240
H       -8.37079310       5.81461750       5.16952621
H       -7.36858943       3.44088821       2.22263053
H      -12.08085557       1.84940876       2.24835059
H      -13.71221072       2.55704897       3.97833350
H      -10.67737094       4.88836076       5.96465584
C      -13.25096543       4.16271217       6.05835920
C      -14.05582620       4.49914033       6.89109639
Br     -15.35721799       5.04311622       8.23756200
C        1.79073005      -1.79073005       1.79073005
C        2.63496903      -1.21029032       2.72787218
C        3.43831675      -2.02227969       3.53842322
C        3.41891062      -3.42646193       3.43049823
C        2.55498230      -3.98083028       2.46964036
C        1.74673848      -3.17273359       1.65765910
N        4.26248896      -4.24880212       4.27489875
C        4.60494801      -5.54207597       3.88315244
O        4.50076855      -6.01392821       2.75082081
N        5.17850772      -6.33605337       4.83930901
C        6.05490354      -5.85290820       5.76030104
O        6.97094720      -6.53989706       6.19483129
C        5.83765048      -4.43497354       6.10918333
C        6.74028067      -3.85995460       6.92896579
C        6.84744516      -2.50207273       7.36353257
C        6.54434660      -1.38095857       6.62382142
N        6.80529524      -0.27880128       7.39576876
H        6.64879739       0.67944748       7.11441361
C        7.34191100      -0.65919496       8.60382967
C        7.78934170       0.12477509       9.67401865
C        8.30361058      -0.53794541      10.79193361
C        8.35753839      -1.92858226      10.82887003
C        7.90177772      -2.70263824       9.75644995
C        7.38370944      -2.05536667       8.61350503
C        4.64849498      -3.76147755       5.52774738
O        4.02877620      -2.91792789       6.17371931
H        2.68005052      -0.13048949       2.84241455
H        4.09167248      -1.51803035       4.24555930
H        2.45692330      -5.05585643       2.34127233
H        1.08523375      -3.63956609       0.93198980
H        5.42670942      -7.25613174       4.49949112
H        7.53160743      -4.50040891       7.32292047
H        6.15353813      -1.25382009       5.62474996
H        7.74500215       1.20880390       9.64241667
H        8.66168257       0.04866058      11.63457119
H        7.94538270      -3.78632911       9.79867573
C        8.89448348      -2.58475673      11.99279659
C        9.34417499      -3.13430286      12.96758508
Br      10.07128814      -4.02287246      14.54373562
C       -0.00445707       0.01189536      -1.78238275
H       -0.66409135       0.67374010      -2.43557963
H        0.65740317      -0.63156657      -2.45157240
C       -0.90989263      -0.90692880      -0.91072765
C        0.90977584       0.90977584      -0.90977584
C       -0.00465871       1.77757030       0.00794375
H       -0.66225468       2.44313916      -0.64384735
H        0.64322798       2.43503045       0.67728295
C       -1.78241447       0.00034974      -0.00472694
H       -2.45427497      -0.65498947       0.64260836
H       -2.43311707       0.67328779      -0.65473579
C       -0.91132561       0.90220522       0.91563759
C       -0.01476271      -0.02253852       1.78660255
H       -0.67934791      -0.69751639       2.42135241
H        0.63392994       0.61504881       2.47327442
C        0.01484550      -1.77751727      -0.01636693
H        0.67870853      -2.42144646      -0.68295456
H       -0.62264859      -2.45592969       0.64226336
C        1.78714474       0.01002794       0.00389507
H        2.44202412       0.67113390       0.66197326
H        2.45385902      -0.65136977      -0.64189061
C        0.91606151      -0.90478549       0.90901405
