93
Properties=species:S:1:pos:R:3 pbc="F F F"
C        0.00000000       0.00000000       0.00000000
N        4.81342951       3.00106319      -3.75258894
C        3.79695645       3.54094165      -3.74085125
C        2.55529815       4.20042256      -3.72651324
C        1.48169216       3.76483481      -3.03470306
C        1.46402567       2.58663020      -2.22741550
O        2.55004168       1.76501000      -2.02002268
C        2.19325520       0.73585303      -1.20803216
I        3.49722687      -0.72891562      -0.64007602
C        0.87283712       0.87283712      -0.87283712
C        0.40146839       2.04208001      -1.51149780
C        2.40246877       5.43604673      -4.51416893
C        1.97569367       5.37577100      -5.84867064
C        1.82201752       6.54843478      -6.59282405
C        2.09301805       7.78209419      -6.00353759
Br       1.88579324       9.36788196      -7.01092413
C        2.51597013       7.85582207      -4.67745480
C        2.66985602       6.68364025      -3.93240254
H        0.55323290       4.33007509      -3.07980907
H       -0.59756560       2.45064036      -1.46493550
H        1.76526141       4.41785260      -6.32096763
H        1.49521585       6.48827608      -7.62794146
H        2.73120895       8.81664841      -4.21684921
H        3.00501308       6.75340859      -2.89911119
N       -4.84813506      -3.05874705      -3.66019953
C       -3.80678217      -3.54441312      -3.72755407
C       -2.53473225      -4.13767164      -3.80983006
C       -1.44934672      -3.68136093      -3.15052236
C       -1.44811040      -2.54559740      -2.28436357
O       -2.56137152      -1.79351368      -1.98018916
C       -2.21422333      -0.78883208      -1.13408498
I       -3.55801809       0.57527702      -0.42564620
C       -0.87283712      -0.87283712      -0.87283712
C       -0.37791448      -1.98239337      -1.59473835
C       -2.36202505      -5.32272976      -4.66792963
C       -2.00945905      -5.17362474      -6.01705152
C       -1.83676376      -6.29801362      -6.82849898
C       -2.01456139      -7.57206236      -6.29202607
Br      -1.78167179      -9.09254579      -7.39038176
C       -2.36308543      -7.73396343      -4.95219815
C       -2.53591866      -6.61011109      -4.13986905
H       -0.49749632      -4.19410840      -3.27151233
H        0.64132276      -2.33973940      -1.61959362
H       -1.87217075      -4.18360979      -6.44830109
H       -1.56818065      -6.16921109      -7.87404164
H       -2.50563656      -8.72654782      -4.53252219
H       -2.81245170      -6.74884570      -3.09623547
N       -3.10241401       4.86760382       3.59706382
C       -3.63429219       3.84685442       3.59760274
C       -4.28400047       2.59997242       3.59826105
C       -3.81976592       1.51105408       2.95041002
C       -2.61345880       1.47836616       2.18624641
O       -1.74946563       2.54173286       2.04387588
C       -0.70594218       2.17726718       1.25393103
I        0.81583837       3.45076470       0.77346095
C       -0.87283712       0.87283712       0.87283712
C       -2.07655551       0.41989632       1.45859437
C       -5.54969876       2.46321835       4.33976733
C       -6.77289310       2.72248698       3.70475523
C       -7.97379485       2.58390467       4.40557683
C       -7.95333805       2.18455176       5.74076002
Br      -9.57804162       1.99812833       6.68842939
C       -6.74442563       1.92190364       6.38291774
C       -5.54292170       2.06011619       5.68286091
H       -4.38514814       0.58267069       2.99529823
H       -2.51477957      -0.56328175       1.36651243
H       -6.80119221       3.03921026       2.66367916
H       -8.91529287       2.79251114       3.90362937
H       -6.72588168       1.61364691       7.42517799
H       -4.60483981       1.85655454       6.19613851
N        3.02582647      -4.82976170       3.71149348
C        3.61871927      -3.84825331       3.61177678
C        4.34295909      -2.64930560       3.48996927
C        3.90526309      -1.57430916       2.80165777
C        2.65550800      -1.50945280       2.11311057
O        1.71986734      -2.52026863       2.09493839
C        0.65105664      -2.13732924       1.34875451
I       -0.97498295      -3.33493750       1.04843272
C        0.87283712      -0.87283712       0.87283712
C        2.13829230      -0.46492351       1.35183040
C        5.66085138      -2.55073471       4.14109834
C        6.82109503      -2.92893163       3.45010865
C        8.07188537      -2.82678248       4.06460850
C        8.16431034      -2.34510196       5.36923752
Br       9.85641114      -2.20799404       6.20019416
C        7.01897060      -1.96403951       6.06623689
C        5.76765389      -2.06573338       5.45251154
H        4.52873333      -0.68425443       2.75012930
H        2.62947952       0.47961539       1.16814613
H        6.76099649      -3.31064062       2.43244453
H        8.96350096      -3.12770675       3.52022567
H        7.08833858      -1.59133269       7.08503531
H        4.87987578      -1.76935757       6.00829952
