122
Properties=species:S:1:pos:R:3 pbc="F F F"
N        5.72333354       3.91096721      -4.66249297
C        4.70686048       4.45084568      -4.65075528
C        3.46520217       5.11032659      -4.63641727
C        2.39159618       4.67473883      -3.94460708
C        2.37392969       3.49653423      -3.13731953
O        3.45994570       2.67491403      -2.92992670
C        3.10315922       1.64575705      -2.11793619
I        4.40713090       0.18098840      -1.54998005
C        1.78274114       1.78274114      -1.78274114
C        1.31137242       2.95198403      -2.42140182
C        3.31237280       6.34595076      -5.42407295
C        2.88559769       6.28567503      -6.75857467
C        2.73192155       7.45833880      -7.50272808
C        3.00292207       8.69199822      -6.91344161
C        3.42587416       8.76572610      -5.58735882
C        3.57976004       7.59354427      -4.84230656
H        1.46313692       5.23997912      -3.98971309
H        0.31233842       3.36054438      -2.37483953
H        2.67516543       5.32775662      -7.23087166
H        2.40511987       7.39818010      -8.53784548
H        3.64111297       9.72655244      -5.12675324
H        3.91491711       7.66331261      -3.80901522
C        2.84504518       9.90015107      -7.68093204
C        2.71282329      10.91197909      -8.32370528
Br       2.49903167      12.54801942      -9.36301523
N       -5.75949700      -3.97155521      -4.56574150
C       -4.71713180      -4.45451168      -4.63681794
C       -3.44384533      -5.04446033      -4.72364037
C       -2.35796788      -4.58710807      -4.06586613
C       -2.35738310      -3.45345801      -3.19694234
O       -3.47172678      -2.70483788      -2.88822178
C       -3.12496188      -1.70137551      -2.04051508
I       -4.47034147      -0.34228121      -1.32547667
C       -1.78274114      -1.78274114      -1.78274114
C       -1.28688152      -2.88932400      -2.50855276
C       -3.27034787      -6.22699960      -5.58504903
C       -2.92144128      -6.07374852      -6.93465759
C       -2.74798959      -7.19573258      -7.74926626
C       -2.92137303      -8.47151457      -7.21547430
C       -3.26622922      -8.63752912      -5.87520074
C       -3.43981538      -7.51608409      -5.05971141
H       -1.40516965      -5.09723368      -4.19042580
H       -0.26684063      -3.24411871      -2.53676300
H       -2.78761817      -5.08235384      -7.36382170
H       -2.48227469      -7.06372835      -8.79514241
H       -3.40533711      -9.63147789      -5.45760364
H       -3.71346063      -7.65803509      -4.01574922
C       -2.74316578      -9.62743615      -8.05552638
C       -2.59391721     -10.59552046      -8.75906999
Br      -2.35259489     -12.16083093      -9.89664051
N       -4.01103773       5.77700740       4.50874859
C       -4.54394491       4.75679522       4.50772130
C       -5.19491016       3.51056944       4.50646643
C       -4.73112005       2.42183684       3.85798521
C       -3.52407599       2.38870200       3.09500545
O       -2.65886807       3.45133929       2.95457908
C       -1.61491597       3.08661729       2.16531921
I       -0.09136833       4.35906224       1.68766879
C       -1.78274114       1.78274114       1.78274114
C       -2.98750600       1.33042499       2.36682729
C       -6.46149327       3.37434522       5.24655802
C       -7.68378421       3.63548806       4.61057512
C       -8.88553164       3.49741124       5.31004555
C       -8.86682477       3.09669211       6.64484502
C       -7.65882635       2.83217699       7.28795573
C       -6.45647789       2.96988269       6.58925030
H       -5.29748288       1.49397966       3.90136659
H       -3.42662782       0.34778296       2.27331156
H       -7.71071346       3.95328907       3.56979118
H       -9.82631190       3.70747356       4.80736000
H       -7.64164491       2.52285118       8.32992255
H       -5.51912011       2.76485720       7.10326762
C      -10.10549662       2.95518440       7.36544729
C      -11.14288428       2.83667169       7.96895169
Br     -12.82025241       2.64504666       8.94476726
N        3.93584660      -5.73973689       4.62121022
C        4.52864784      -4.75815661       4.52165698
C        5.25277582      -3.55912108       4.40004912
C        4.81503967      -2.48409862       3.71180379
C        3.56534935      -2.41930052       3.02313358
O        2.62981553      -3.43021159       3.00475932
C        1.56104254      -3.04730568       2.25850424
I       -0.06484151      -4.24505156       1.95788930
C        1.78274114      -1.78274114       1.78274114
C        3.04810423      -1.37474590       2.26190815
C        6.57059027      -3.46048098       5.05132525
C        7.73094491      -3.83848571       4.36041677
C        8.98166083      -3.73627051       4.97505708
C        9.07390036      -3.25471585       6.27974569
C        7.92844871      -2.87384467       6.97666569
C        6.67720628      -2.97560472       6.36279987
H        5.43842285      -1.59397384       3.66043245
H        3.53921245      -0.43013695       2.07837293
H        7.67099164      -4.22009528       3.34270679
H        9.87336417      -4.03704569       4.43073559
H        7.99767222      -2.50123643       7.99551000
H        5.78933971      -2.67937879       6.91852644
C       10.36297259      -3.15019032       6.91296539
C       11.44257058      -3.06265018       7.44328690
Br      13.18818922      -2.92110518       8.30077192
C       -0.00445707       0.01189536      -1.78238275
H       -0.66409135       0.67374010      -2.43557963
H        0.65740317      -0.63156657      -2.45157240
C       -0.90989263      -0.90692880      -0.91072765
C        0.90977584       0.90977584      -0.90977584
C       -0.00465871       1.77757030       0.00794375
H       -0.66225468       2.44313916      -0.64384735
H        0.64322798       2.43503045       0.67728295
C       -1.78241447       0.00034974      -0.00472694
H       -2.45427497      -0.65498947       0.64260836
H       -2.43311707       0.67328779      -0.65473579
C       -0.91132561       0.90220522       0.91563759
C       -0.01476271      -0.02253852       1.78660255
H       -0.67934791      -0.69751639       2.42135241
H        0.63392994       0.61504881       2.47327442
C        0.01484550      -1.77751727      -0.01636693
H        0.67870853      -2.42144646      -0.68295456
H       -0.62264859      -2.45592969       0.64226336
C        1.78714474       0.01002794       0.00389507
H        2.44202412       0.67113390       0.66197326
H        2.45385902      -0.65136977      -0.64189061
C        0.91606151      -0.90478549       0.90901405
