158
Properties=species:S:1:pos:R:3 pbc="F F F"
N        4.72203222      -0.28987625      -6.20160860
C        4.74266207      -0.67143669      -5.10575731
C        4.75717865      -1.15763548      -3.76178327
C        5.33868115      -0.50538475      -2.73537315
C        6.01246178       0.73464090      -2.89172418
C        7.36634925       0.95712606      -3.07445505
C        7.55492829       2.33050824      -3.30784752
C        6.31571892       2.92232857      -3.24748168
N        5.35069164       1.96860293      -2.95374609
C        3.96192693       2.27023420      -2.76326912
C        3.40405610       3.39942754      -3.38627538
C        2.05099471       3.71008275      -3.21924869
C        1.24108744       2.90321370      -2.42462861
C        1.79251662       1.79251662      -1.79251662
C        3.14445081       1.47572737      -1.94956412
C        4.10458814      -2.44515841      -3.47033871
C        2.73994434      -2.48836727      -3.15067926
C        2.12405885      -3.70706963      -2.85543902
C        2.87082853      -4.88360400      -2.87969105
Br       2.03745658      -6.53215000      -2.47982414
C        4.22831373      -4.85387606      -3.19622956
C        4.84542567      -3.63542902      -3.48995639
H        5.34783310      -0.94564289      -1.74015828
H        8.13389724       0.19380468      -3.08009671
H        8.49063074       2.83919419      -3.50402303
H        6.05833133       3.96759677      -3.34223187
H        3.98958699       4.03583861      -4.04602142
H        1.62881132       4.57872150      -3.71997691
H        0.18971611       3.15002518      -2.30288961
H        3.54203772       0.63877597      -1.38687965
H        2.14503202      -1.57689573      -3.13139362
H        1.06514421      -3.72728751      -2.61040525
H        4.81253430      -5.77098586      -3.21799635
H        5.90535119      -3.62441725      -3.73642493
N       -7.47126114      -1.68398610      -1.47851734
C       -6.72575047      -1.84708186      -0.60415036
C       -5.81160516      -2.02911529       0.47939401
C       -5.08649260      -3.14977758       0.66760063
C       -5.16985233      -4.27632747      -0.19264706
C       -5.94195124      -5.41507225      -0.04090686
C       -5.79583337      -6.19844959      -1.19900110
C       -4.92577484      -5.53148308      -2.02827126
N       -4.49347923      -4.36234544      -1.41721599
C       -3.53337566      -3.46747852      -1.99457607
C       -3.39129924      -3.40723787      -3.39122191
C       -2.46545340      -2.53819667      -3.97667608
C       -1.66680833      -1.72507018      -3.17705124
C       -1.79251662      -1.79251662      -1.79251662
C       -2.71172947      -2.66062593      -1.19738691
C       -5.64606637      -0.93733147       1.45362940
C       -4.70299304       0.07506631       1.22567041
C       -4.53176226       1.10097765       2.15835638
C       -5.30277488       1.11656242       3.31929689
Br      -5.07062204       2.50437214       4.58111918
C       -6.24389216       0.11583457       3.55739036
C       -6.41462400      -0.91139859       2.62606955
H       -4.43383326      -3.24207258       1.53355735
H       -6.57955914      -5.63423571       0.80599622
H       -6.27429097      -7.14598473      -1.41357227
H       -4.54234505      -5.83334990      -2.99246502
H       -4.02020679      -3.99570597      -4.05553426
H       -2.37689471      -2.49070192      -5.05991310
H       -0.95212886      -1.05006815      -3.64043389
H       -2.72824622      -2.72412835      -0.11531877
H       -4.09686688       0.07592500       0.32141197
H       -3.79821381       1.88066373       1.96928813
H       -6.84826957       0.12719015       4.46153463
H       -7.15271689      -1.68671300       2.82207100
N       -6.76028194       3.89099565      -0.01751301
C       -5.72841680       3.98828008      -0.53971419
C       -4.46361526       4.09457437      -1.19686319
C       -3.45392876       4.87197753      -0.75723674
C       -3.55259248       5.68029606       0.40593831
C       -3.88478022       7.02125236       0.49189778
C       -3.97998491       7.36049642       1.85280272
C       -3.68885334       6.22536491       2.57131093
N       -3.38339657       5.18392300       1.70572109
C       -2.97817247       3.87847879       2.13877899
C       -3.38708823       3.40551060       3.39716019
C       -3.00860049       2.13368185       3.83804381
C       -2.21339077       1.32240023       3.03313874
C       -1.79251662       1.79251662       1.79251662
C       -2.16174348       3.06358675       1.34441208
C       -4.24025246       3.31654611      -2.42703012
C       -3.75103996       2.00447494      -2.35325857
C       -3.52078260       1.27207661      -3.52043097
C       -3.77943232       1.84967412      -4.76219087
Br      -3.46744160       0.85875588      -6.34106676
C       -4.26619495       3.15328641      -4.84881414
C       -4.49515334       3.88703422      -3.68223452
H       -2.52644120       4.93856159      -1.32265431
H       -4.07988950       7.67582545      -0.34791631
H       -4.23718218       8.32584307       2.27082271
H       -3.62697365       6.09848224       3.64270407
H       -4.03977893       3.98912253       4.04254556
H       -3.34522115       1.77421003       4.80807855
H       -1.92658582       0.33392888       3.38211619
H       -1.75721432       3.41020193       0.40027709
H       -3.54801679       1.54093355      -1.38942043
H       -3.14259041       0.25535815      -3.44968661
H       -4.47090856       3.60527219      -5.81663596
H       -4.87595939       4.90337028      -3.76197079
N        5.50010384       0.38386338       5.51752412
C        5.42025746       0.62930017       4.38602541
C        5.31383812       0.94969221       2.99718053
C        5.67504192       0.11152989       2.00515752
C        6.21471881      -1.17985350       2.24425455
C        7.54573244      -1.55618481       2.29601311
C        7.60241921      -2.90589208       2.68497276
C        6.30572485      -3.33206994       2.84773439
N        5.42792077      -2.30009120       2.54502868
C        4.00059251      -2.43600996       2.55882779
C        3.40224932      -3.40156772       3.38594198
C        2.01211134      -3.54835129       3.41986353
C        1.20386694      -2.73965687       2.62540594
C        1.79251662      -1.79251662       1.79251662
C        3.18094224      -1.64070659       1.74809348
C        4.78272779       2.26932540       2.61636604
C        3.40221436       2.45466677       2.45470874
C        2.89873204       3.70126926       2.07496546
C        3.77390454       4.76379787       1.85680891
Br       3.09251998       6.45006142       1.34267215
C        5.14852725       4.59230852       2.01444849
C        5.65304700       3.34561958       2.39252563
H        5.60399664       0.42796841       0.96632025
H        8.39084470      -0.90533514       2.11161879
H        8.49025000      -3.50724555       2.83635241
H        5.94327119      -4.31608228       3.10880651
H        3.99165075      -4.02855407       4.05124220
H        1.56151847      -4.28953268       4.07645858
H        0.12411644      -2.85811460       2.66039986
H        3.59546489      -0.93468074       1.03754770
H        2.70801694       1.63361945       2.62513242
H        1.82635205       3.83233444       1.95424434
H        5.83318256       5.42060496       1.84696720
H        6.72768211       3.22365061       2.51332738
C       -0.00445707       0.01189536      -1.78238275
H       -0.66409135       0.67374010      -2.43557963
H        0.65740317      -0.63156657      -2.45157240
C       -0.90989263      -0.90692880      -0.91072765
C        0.90977584       0.90977584      -0.90977584
C       -0.00465871       1.77757030       0.00794375
H       -0.66225468       2.44313916      -0.64384735
H        0.64322798       2.43503045       0.67728295
C       -1.78241447       0.00034974      -0.00472694
H       -2.45427497      -0.65498947       0.64260836
H       -2.43311707       0.67328779      -0.65473579
C       -0.91132561       0.90220522       0.91563759
C       -0.01476271      -0.02253852       1.78660255
H       -0.67934791      -0.69751639       2.42135241
H        0.63392994       0.61504881       2.47327442
C        0.01484550      -1.77751727      -0.01636693
H        0.67870853      -2.42144646      -0.68295456
H       -0.62264859      -2.45592969       0.64226336
C        1.78714474       0.01002794       0.00389507
H        2.44202412       0.67113390       0.66197326
H        2.45385902      -0.65136977      -0.64189061
C        0.91606151      -0.90478549       0.90901405
