173
Properties=species:S:1:pos:R:3 pbc="F F F"
C        0.00000000       0.00000000       0.00000000
C        0.88201879       0.88201879      -0.88201879
C        1.54882838       0.32280902      -1.97251369
C        2.35572681       1.12976505      -2.77854480
C        2.47523112       2.49559007      -2.49740280
C        1.81461786       3.05136004      -1.39468173
C        1.01623018       2.23932023      -0.58523519
C        3.31910893       3.33530951      -3.37906290
O        4.44990776       2.97263832      -3.67527216
N        2.71175242       4.49160288      -3.82713774
N        3.50461026       5.45653392      -4.47077064
C        3.83515752       5.38380265      -5.79552134
S        3.48254000       4.18377782      -6.90021520
S        4.66821051       6.85970525      -6.23390393
C        4.37639807       7.64846567      -4.73213924
C        4.75291955       9.03677955      -4.52897484
H        5.10184231       9.59188799      -5.39357166
C        4.64123842       9.72325463      -3.29823063
C        4.49622928      11.08738517      -3.08023686
C        4.39707283      11.29538702      -1.68365016
C        4.52171826      10.05478157      -1.09983114
O        4.69232848       9.11340094      -2.07024348
C        4.49469662       9.56355592       0.27153340
C        3.81735736      10.27682043       1.27172619
C        3.79165131       9.81008386       2.59008556
C        4.45184204       8.62830051       2.91799077
C        5.13110012       7.90632514       1.94063320
C        5.14714567       8.37178421       0.62257734
C        3.60463382       6.69382043      -3.89111923
O        3.00638089       7.05526685      -2.89036177
H        1.44956430      -0.73546446      -2.20106248
H        2.88168442       0.69652752      -3.62739046
H        1.93608050       4.10185082      -1.13949983
H        0.51095720       2.67015732       0.27595379
H        1.85115976       4.83580128      -3.41257886
H        4.44211986      11.84529566      -3.85008557
H        4.25997018      12.23542170      -1.16871694
H        3.28798553      11.19613375       1.03229680
H        3.25347713      10.37353371       3.34763101
H        5.65026588       6.98427578       2.18801538
H        5.68091481       7.79837315      -0.13318119
C        4.43053406       8.14976623       4.27598595
C        4.41268863       7.74899377       5.41330691
Br       4.38383408       7.10097860       7.25225872
C       -0.88201879      -0.88201879      -0.88201879
C       -0.75869389      -0.81532025      -2.27013694
C       -1.56589869      -1.62180006      -3.07633791
C       -2.47907193      -2.50302787      -2.48612418
C       -2.60929432      -2.55852712      -1.09283818
C       -1.80712093      -1.74353621      -0.29012846
C       -3.30872192      -3.36385059      -3.36090884
O       -3.90617595      -2.87894838      -4.31269392
N       -3.30900040      -4.70183875      -3.01965389
N       -4.24127376      -5.54965301      -3.64098805
C       -4.04031390      -6.09598363      -4.87818396
S       -2.77158412      -5.85898299      -5.93596592
S       -5.34247805      -7.22140413      -5.19793751
C       -6.01285225      -7.12881230      -3.61533843
C       -7.11453267      -7.98768125      -3.21646001
H       -7.40985351      -8.77377523      -3.90367323
C       -7.78515998      -7.90266881      -1.97489490
C       -8.47023471      -8.90037643      -1.29324017
C       -8.94753596      -8.34804230      -0.08053175
C       -8.56731839      -7.02482491      -0.08418767
O       -7.88925946      -6.75231674      -1.23439671
C       -8.71923407      -5.91552348       0.84803841
C       -8.88799098      -6.15448294       2.22002231
C       -9.03718928      -5.09228018       3.11781986
C       -9.02647299      -3.78179643       2.64611763
C       -8.86181655      -3.52319686       1.28822134
C       -8.70446693      -4.58730639       0.39542077
C       -5.16531110      -6.17681303      -2.84744935
O       -5.20806910      -6.11484974      -1.62909067
H       -0.04251934      -0.14037127      -2.73227171
H       -1.47641127      -1.56929416      -4.15989698
H       -3.34715244      -3.20608877      -0.62418994
H       -1.91544392      -1.78099074       0.79127393
H       -2.95085870      -5.02314570      -2.12553550
H       -8.58849572      -9.92267070      -1.62633467
H       -9.50639545      -8.85238218       0.69466881
H       -8.88892148      -7.17056794       2.60766694
H       -9.15772278      -5.29944671       4.17778967
H       -8.85395806      -2.50396001       0.91139178
H       -8.57572581      -4.37278387      -0.66395947
C       -9.18540070      -2.68776587       3.56885222
C       -9.31850266      -1.77151527       4.34164244
Br      -9.53371727      -0.29001556       5.59117886
C       -0.88201879       0.88201879       0.88201879
C       -1.04321909       0.56891047       2.23202152
C       -1.85034615       1.37557627       3.03811424
C       -2.47656589       2.50110822       2.49054987
C       -2.32284695       2.80555767       1.13225501
C       -1.52264337       1.99107008       0.32707214
C       -3.30994187       3.35361456       3.36992491
O       -4.15138403       2.84655147       4.09988275
N       -3.02739967       4.70339438       3.29969898
N       -3.91292103       5.60426705       3.91472673
C       -3.87048824       5.89360164       5.25039162
S       -2.88687611       5.24661473       6.43304219
S       -5.01035973       7.18373168       5.56772829
C       -5.36641643       7.48049252       3.91009403
C       -6.21581353       8.59006065       3.51279976
H       -6.50786989       9.29679274       4.28263933
C       -6.63715487       8.83902037       2.18654844
C       -7.00607310      10.04772130       1.61005692
C       -7.32159642       9.80231174       0.25220185
C       -7.16855782       8.44762439       0.06014876
O       -6.78012610       7.86610113       1.22974567
C       -7.31389426       7.55473675      -1.08191187
C       -7.17191069       8.04072506      -2.39018416
C       -7.31368674       7.18730654      -3.48934367
C       -7.60702695       5.84100119      -3.28587636
C       -7.75341836       5.33908734      -1.99571364
C       -7.60247641       6.19357537      -0.89969922
C       -4.55125501       6.51899925       3.11931922
O       -4.36591099       6.66450292       1.92159561
H       -0.54933066      -0.29804278       2.66387444
H       -1.98280897       1.13205561       4.09073782
H       -2.84088024       3.65128090       0.68527001
H       -1.41125856       2.22333946      -0.72943729
H       -2.45516961       5.08934823       2.55502206
H       -7.01979495      11.00587391       2.11183223
H       -7.63005704      10.52429025      -0.49023847
H       -6.93307316       9.08669595      -2.56794662
H       -7.19081875       7.58267724      -4.49411616
H       -7.98396160       4.29047086      -1.82790617
H       -7.71847923       5.78958830       0.10440161
C       -7.75852082       4.96271483      -4.41692130
C       -7.88539694       4.22714999      -5.36417144
Br      -8.09054490       3.03780387      -6.89579480
C        0.88201879      -0.88201879       0.88201879
C        2.08714493      -0.38142361       1.37558255
C        2.89364866      -1.18862131       2.18176669
C        2.47902396      -2.48619238       2.50300764
C        1.27484284      -2.99008261       1.99573419
C        0.47557212      -2.18324602       1.18196745
C        3.34057117      -3.31562746       3.37728272
O        4.53832347      -3.41394386       3.14555092
N        2.68460130      -3.90738770       4.43850403
N        3.36277770      -4.88998194       5.17915518
C        4.24303500      -4.58996707       6.18147943
S        4.77010603      -3.09458534       6.70184166
S        4.71862499      -6.08489500       6.95829971
C        3.58769966      -7.06327736       6.10602596
C        3.41969126      -8.46956762       6.42941505
H        3.93393488      -8.84552933       7.30783775
C        2.58997576      -9.36110142       5.71164651
C        1.97786556     -10.52370772       6.16227803
C        1.22454130     -11.06063008       5.09093863
C        1.43413778     -10.22572317       4.01647003
O        2.27413104      -9.21765512       4.38418674
C        0.95498462     -10.19071354       2.64102098
C       -0.26418838     -10.79200652       2.29463346
C       -0.72617753     -10.76315924       0.97466789
C        0.03457057     -10.13803891      -0.01045769
C        1.24793761      -9.53674267       0.31211178
C        1.70192720      -9.56037722       1.63404813
C        2.83849449      -6.15557997       5.19549902
O        1.78797359      -6.49158076       4.67245517
H        2.40739038       0.62996245       1.13773440
H        3.83702256      -0.80371907       2.56486077
H        0.96415692      -4.01219242       2.20108180
H       -0.45485612      -2.57867887       0.78133798
H        1.67094125      -3.94524665       4.48335201
H        2.04872096     -10.92420072       7.16457941
H        0.61205350     -11.95078201       5.10127331
H       -0.87627457     -11.27591288       3.05218418
H       -1.67772436     -11.22741003       0.72969416
H        1.84864537      -9.04834864      -0.45046773
H        2.65181286      -9.08622952       1.87442676
C       -0.43754426     -10.11248339      -1.37062478
C       -0.83294043     -10.09108064      -2.50976471
Br      -1.47226260     -10.05647421      -4.35165764
