186
Properties=species:S:1:pos:R:3 pbc="F F F"
C        1.79192282       1.79192282      -1.79192282
C        2.45873241       1.23271304      -2.88241771
C        3.26563083       2.03966907      -3.68844883
C        3.38513514       3.40549409      -3.40730683
C        2.72452189       3.96126406      -2.30458575
C        1.92613420       3.14922425      -1.49513921
C        4.22901296       4.24521354      -4.28896693
O        5.35981179       3.88254234      -4.58517619
N        3.62165645       5.40150690      -4.73704176
N        4.41451428       6.36643795      -5.38067466
C        4.74506154       6.29370667      -6.70542536
S        4.39244403       5.09368184      -7.81011923
S        5.57811454       7.76960928      -7.14380796
C        5.28630209       8.55836969      -5.64204326
C        5.66282357       9.94668357      -5.43887887
H        6.01174633      10.50179201      -6.30347569
C        5.55114244      10.63315866      -4.20813466
C        5.40613331      11.99728920      -3.99014088
C        5.30697686      12.20529105      -2.59355418
C        5.43162229      10.96468559      -2.00973517
O        5.60223250      10.02330496      -2.98014751
C        5.40460064      10.47345995      -0.63837063
C        4.72726138      11.18672445       0.36182217
C        4.70155533      10.71998789       1.68018154
C        5.36174606       9.53820454       2.00808674
Br       5.33378080       8.91016102       3.79036255
C        6.04100415       8.81622916       1.03072917
C        6.05704970       9.28168824      -0.28732669
C        4.51453785       7.60372446      -4.80102325
O        3.91628492       7.96517087      -3.80026580
H        2.35946833       0.17443956      -3.11096651
H        3.79158844       1.60643155      -4.53729448
H        2.84598452       5.01175485      -2.04940385
H        1.42086123       3.58006134      -0.63395024
H        2.76106378       5.74570531      -4.32248289
H        5.35202388      12.75519968      -4.75998960
H        5.16987420      13.14532573      -2.07862096
H        4.19788955      12.10603778       0.12239277
H        4.16338115      11.28343774       2.43772699
H        6.56016990       7.89417980       1.27811135
H        6.59081883       8.70827717      -1.04308521
C       -1.79192282      -1.79192282      -1.79192282
C       -1.31178009      -3.02331200      -2.23877107
C       -2.11861574      -3.82935083      -3.04578216
C       -3.40820231      -3.40447320      -3.38526055
C       -3.88253184      -2.16233312      -2.94550675
C       -3.06920037      -1.35472231      -2.14657500
C       -4.25319384      -4.28599649      -4.22400308
O       -3.80087704      -4.77667936      -5.24997392
N       -5.52496828      -4.50323451      -3.73200232
N       -6.46644423      -5.12861082      -4.56657184
C       -6.53741273      -6.48524877      -4.72153206
S       -5.55235853      -7.66763263      -4.07625393
S       -7.94810591      -6.85267271      -5.69075316
C       -8.55200801      -5.24087635      -5.69383069
C       -9.84340022      -4.92532711      -6.27965867
H      -10.46601816      -5.75630258      -6.59469329
C      -10.36230677      -3.61712004      -6.41300894
C      -11.69086550      -3.21810977      -6.48458812
C      -11.71504575      -1.80637210      -6.58440424
C      -10.39999074      -1.39940924      -6.60664307
O       -9.58753141      -2.49058412      -6.52756944
C       -9.73153043      -0.10684051      -6.67806028
C      -10.37682659       1.05582789      -6.23116498
C       -9.73957991       2.29906419      -6.30084596
C       -8.45291072       2.38781260      -6.82676573
Br      -7.59348727       4.06795015      -6.92804215
C       -7.79567540       1.24627707      -7.27710581
C       -8.43279104       0.00451490      -7.19778848
C       -7.59092081      -4.42311322      -4.90525153
O       -7.88072046      -3.31326532      -4.48773581
H       -0.31485837      -3.36213115      -1.96788488
H       -1.74605507      -4.78857256      -3.40068684
H       -4.86545492      -1.80132742      -3.24036089
H       -3.43520382      -0.38650371      -1.81316527
H       -5.91019928      -3.93563576      -2.98341693
H      -12.54848298      -3.87595983      -6.44277035
H      -12.58484452      -1.16774877      -6.64122760
H      -11.37748538       1.00435102      -5.80840020
H      -10.25419598       3.18593684      -5.94083277
H       -6.79246446       1.30664696      -7.69042085
H       -7.90866819      -0.88119753      -7.55231549
C       -1.79192282       1.79192282       1.79192282
C       -1.34278091       3.05605619       2.17502605
C       -2.14957998       3.86210276       2.98206599
C       -3.40889830       3.40360935       3.38542840
C       -3.85156891       2.12922084       3.00958194
C       -3.03792862       1.32214756       2.21042148
C       -4.25550168       4.28484537       4.22284637
O       -3.78495512       4.83021884       5.21235636
N       -5.55169976       4.43673320       3.77177214
N       -6.48510370       5.05849758       4.61802561
C       -6.60170677       6.41653731       4.72594949
S       -5.68635286       7.60879116       4.00110108
S       -7.98899337       6.76868293       5.73385547
C       -8.53089400       5.13719516       5.81862589
C       -9.78716628       4.79714436       6.46407537
H      -10.42890173       5.61618046       6.77193184
C      -10.25093441       3.47686208       6.66463926
C      -11.55992767       3.03263020       6.80100553
C      -11.52695653       1.62574527       6.95312028
C      -10.19749501       1.26818064       6.94036739
O       -9.43037871       2.38450022       6.79080604
C       -9.47839255       0.00450166       7.03353701
C      -10.09506405      -1.19703506       6.65413469
C       -9.40906403      -2.41265481       6.74495246
C       -8.10162100      -2.43440250       7.22464536
Br      -7.17604934      -4.07701363       7.35454357
C       -7.47210066      -1.25340320       7.60780668
C       -8.15826567      -0.03961578       7.50741474
C       -7.56894015       4.32576804       5.02457736
O       -7.83153584       3.19106530       4.65912045
H       -0.36995925       3.42052774       1.85438741
H       -1.80091724       4.84703655       3.28736069
H       -4.80869621       1.74401220       3.35443481
H       -3.37891799       0.32928288       1.92667194
H       -5.94221681       3.82750567       3.05952950
H      -12.44280275       3.65668712       6.76772328
H      -12.36928711       0.95841538       7.06611840
H      -11.11171618      -1.19816204       6.26798042
H       -9.90251246      -3.33071743       6.43729687
H       -6.45290792      -1.26142173       7.98475217
H       -7.65547988       0.87742736       7.80927397
C        1.79192282      -1.79192282       1.79192282
C        1.94367179      -1.48561323       3.14457813
C        2.75080208      -2.29227314       3.95067350
C        3.38653062      -3.41109125       3.40031419
C        3.24226040      -3.70865247       2.03945883
C        2.44200356      -2.89413694       1.23435717
C        4.21975477      -4.26385944       4.27957921
O        5.05413480      -3.75620387       5.01719165
N        3.94532209      -5.61479790       4.20008512
N        4.83246574      -6.51412662       4.81503453
C        4.78410713      -6.81131398       6.14877246
S        3.79012511      -6.17667700       7.32944299
S        5.92950281      -8.09674572       6.46528324
C        6.29664622      -8.38201823       4.80805060
C        7.15460121      -9.48446424       4.40932056
H        7.44631294     -10.19390917       5.17679192
C        7.58487422      -9.72345767       3.08410386
C        7.96394826     -10.92673685       2.50287828
C        8.28576508     -10.67179705       1.14825995
C        8.12609116      -9.31692598       0.96302590
O        7.72771788      -8.74429918       2.13366791
C        8.27280772      -8.41672599      -0.17310249
C        8.14102456      -8.89603905      -1.48489994
C        8.28416264      -8.03557189      -2.57837285
C        8.56865684      -6.68880681      -2.36559979
Br       8.76932056      -5.52655507      -3.84229636
C        8.70485958      -6.19344038      -1.07179582
C        8.55257983      -7.05501106       0.01847373
C        5.48051146      -7.42066885       4.01810524
O        5.30279920      -7.56038511       2.81853728
H        1.44240227      -0.62395440       3.57851773
H        2.87589881      -2.05401515       5.00540051
H        3.76763872      -4.54885864       1.59064586
H        2.33794200      -3.12100225       0.17592855
H        3.37953789      -5.99973674       3.44997735
H        7.98029003     -11.88764374       2.99927939
H        8.60254775     -11.38776566       0.40350748
H        7.90917170      -9.94231684      -1.66995398
H        8.16925541      -8.42589361      -3.58605711
H        8.92845979      -5.14450734      -0.89672878
H        8.66057677      -6.65610838       1.02549606
C       -0.00445707       0.01189536      -1.78238275
H       -0.66409135       0.67374010      -2.43557963
H        0.65740317      -0.63156657      -2.45157240
C       -0.90989263      -0.90692880      -0.91072765
C        0.90977584       0.90977584      -0.90977584
C       -0.00465871       1.77757030       0.00794375
H       -0.66225468       2.44313916      -0.64384735
H        0.64322798       2.43503045       0.67728295
C       -1.78241447       0.00034974      -0.00472694
H       -2.45427497      -0.65498947       0.64260836
H       -2.43311707       0.67328779      -0.65473579
C       -0.91132561       0.90220522       0.91563759
C       -0.01476271      -0.02253852       1.78660255
H       -0.67934791      -0.69751639       2.42135241
H        0.63392994       0.61504881       2.47327442
C        0.01484550      -1.77751727      -0.01636693
H        0.67870853      -2.42144646      -0.68295456
H       -0.62264859      -2.45592969       0.64226336
C        1.78714474       0.01002794       0.00389507
H        2.44202412       0.67113390       0.66197326
H        2.45385902      -0.65136977      -0.64189061
C        0.91606151      -0.90478549       0.90901405
