158
Properties=species:S:1:pos:R:3 pbc="F F F"
C        1.79154439       1.79154439      -1.79154439
C        2.66019567       1.20150437      -2.70821196
C        3.47726318       2.00673852      -3.50685230
C        3.42616183       3.40449653      -3.38874834
C        2.54272834       3.98519122      -2.46788890
C        1.72666797       3.17883704      -1.66883362
C        4.32287797       4.28557046      -4.20137654
O        4.29768061       5.49761011      -4.02804549
N        5.21100278       3.62278910      -5.00477737
C        5.49414522       4.02291913      -6.19777848
S        4.72776400       5.34186212      -7.04486802
C        5.57015438       4.99519645      -8.58188898
C        6.52449503       3.86621610      -8.30988016
O        7.30402549       3.49554870      -9.18525226
N        6.41231977       3.37389626      -7.01289724
C        7.20481231       2.25373762      -6.56717892
C        7.62504441       1.25552584      -7.46400436
C        8.37065515       0.14919151      -7.03422042
C        8.71305856       0.02276007      -5.69390874
C        8.32644868       0.99817491      -4.78440622
C        7.58593505       2.10415519      -5.22149420
H        2.71567753       0.11986637      -2.80387006
H        4.15836198       1.52994033      -4.20798824
H        2.49509399       5.06751638      -2.36037915
H        1.05294267       3.64212240      -0.95230486
H        4.85338244       4.68800442      -9.34774825
H        6.12695850       5.87465442      -8.91527116
H        7.35838220       1.28930987      -8.51778498
H        8.67046548      -0.60507402      -7.75754037
H        8.59876202       0.91945197      -3.73479110
H        7.35138084       2.86053954      -4.47659444
C        9.47090756      -1.11739352      -5.24746200
C       10.10560609      -2.07227215      -4.87356285
Br      11.13185994      -3.61623013      -4.26899955
C       -1.79154439      -1.79154439      -1.79154439
C       -2.57369435      -1.20884163      -2.78737602
C       -3.39108327      -2.01305314      -3.58671759
C       -3.42695016      -3.40241281      -3.39004373
C       -2.62975483      -3.97636225      -2.38969139
C       -1.81332804      -3.17095560      -1.59005499
C       -4.32733888      -4.27869984      -4.20378623
O       -4.38135061      -5.47833910      -3.96364651
N       -5.13087663      -3.61591102      -5.09178159
C       -5.37127459      -4.06800076      -6.27556748
S       -4.63709136      -5.47319422      -7.00420855
C       -5.37332845      -5.17020728      -8.60370408
C       -6.27453702      -3.97723382      -8.44882044
O       -6.98270742      -3.61568643      -9.38643259
N       -6.20492192      -3.41796724      -7.17622410
C       -6.95474270      -2.23259797      -6.83838819
C       -7.26748475      -1.26624500      -7.81084487
C       -7.97049942      -0.09812220      -7.48544546
C       -8.37743549       0.12361281      -6.17590470
C       -8.09758842      -0.81745749      -5.19398389
C       -7.39923736      -1.98537026      -5.52697683
H       -2.56159502      -0.13308126      -2.94473768
H       -4.00450101      -1.54103953      -4.35075001
H       -2.65036100      -5.05169933      -2.22092920
H       -1.20732051      -3.62821258      -0.81183685
H       -4.59949539      -4.94699772      -9.34264201
H       -5.96083696      -6.03580394      -8.92024318
H       -6.94630385      -1.37502626      -8.84414694
H       -8.18666116       0.62848040      -8.26475107
H       -8.42159174      -0.66381058      -4.16760276
H       -7.24942226      -2.70929574      -4.72979682
C       -9.09161107       1.32707250      -5.83643747
C       -9.68973313       2.33497000      -5.55213367
Br     -10.65684590       3.96465500      -5.09243847
C       -1.79154439       1.79154439       1.79154439
C       -1.60609572       3.17306162       1.79075465
C       -2.40359915       3.98032957       2.60692528
C       -3.38819128       3.40549305       3.42572237
C       -3.56908959       2.01527178       3.41144709
C       -2.77018284       1.20865189       2.59550390
C       -4.22408813       4.24494207       4.34079476
O       -5.03009794       3.70505529       5.08818299
N       -3.91200963       5.57762298       4.34893663
C       -4.81446009       6.49751420       4.40286854
S       -6.53949970       6.24590703       4.32908740
C       -6.90627778       7.99266922       4.24829281
C       -5.59725510       8.71878557       4.38455061
O       -5.57954764       9.94573323       4.45954558
N       -4.50961575       7.85197453       4.43752299
C       -3.15842271       8.35160445       4.51570170
C       -2.80524863       9.58949584       3.94983014
C       -1.48897618      10.06898593       3.99610496
C       -0.49870486       9.31637318       4.61464934
C       -0.81654610       8.09621333       5.19627038
C       -2.13516310       7.62524114       5.15118020
H       -0.84146280       3.63038379       1.16756736
H       -2.23738178       5.05512518       2.60378359
H       -4.32472838       1.55352499       4.04473616
H       -2.91495366       0.13117287       2.60124340
H       -7.36111583       8.24185784       3.28616145
H       -7.57169604       8.27815344       5.06703461
H       -3.53430584      10.20417214       3.42699907
H       -1.25463641      11.02786181       3.54043361
H       -0.05473780       7.50263760       5.69562968
H       -2.33709480       6.68785457       5.66356545
C        0.85641437       9.80172856       4.65566185
C        1.99132673      10.20821370       4.69000983
Br       3.82638402      10.86546578       4.74554761
C        1.79154439      -1.79154439       1.79154439
C        1.41630743      -3.11014973       2.04345484
C        2.21550175      -3.91456544       2.86078681
C        3.39191813      -3.39981351       3.42767505
C        3.76146322      -2.07407894       3.16026631
C        2.96084499      -1.27003383       2.34345981
C        4.24030468      -4.22805845       4.34146183
O        5.22572964      -3.72816488       4.86944169
N        3.74975033      -5.47695207       4.61186685
C        4.51055343      -6.51560663       4.68868277
S        6.21812117      -6.56328870       4.33308426
C        6.31765631      -8.34034858       4.48923492
C        4.95989265      -8.81545034       4.92524830
O        4.78258033     -10.00000717       5.20223894
N        4.02835294      -7.78322876       4.98753156
C        2.65169641      -8.03842788       5.33560457
C        2.04016371      -9.26864762       5.03576329
C        0.69519861      -9.51439173       5.34447674
C       -0.06452895      -8.53021178       5.96404454
C        0.51259795      -7.30929686       6.28713500
C        1.85885027      -7.07208788       5.98064629
H        0.50325412      -3.51877073       1.61738911
H        1.90173566      -4.93717221       3.05738268
H        4.66801325      -1.65824346       3.59673281
H        3.25447366      -0.24092385       2.15197242
H        6.56892689      -8.79340414       3.52680408
H        7.06158893      -8.61326390       5.24203125
H        2.57991597     -10.06185142       4.52370966
H        0.25696204     -10.47619687       5.08977292
H       -0.06594665      -6.53461958       6.78433215
H        2.27172914      -6.11798298       6.29880270
C       -1.44911119      -8.77604913       6.27403810
C       -2.60869882      -8.98193791       6.53365771
Br      -4.48365394      -9.31484266       6.95344065
C       -0.00445707       0.01189536      -1.78238275
H       -0.66409135       0.67374010      -2.43557963
H        0.65740317      -0.63156657      -2.45157240
C       -0.90989263      -0.90692880      -0.91072765
C        0.90977584       0.90977584      -0.90977584
C       -0.00465871       1.77757030       0.00794375
H       -0.66225468       2.44313916      -0.64384735
H        0.64322798       2.43503045       0.67728295
C       -1.78241447       0.00034974      -0.00472694
H       -2.45427497      -0.65498947       0.64260836
H       -2.43311707       0.67328779      -0.65473579
C       -0.91132561       0.90220522       0.91563759
C       -0.01476271      -0.02253852       1.78660255
H       -0.67934791      -0.69751639       2.42135241
H        0.63392994       0.61504881       2.47327442
C        0.01484550      -1.77751727      -0.01636693
H        0.67870853      -2.42144646      -0.68295456
H       -0.62264859      -2.45592969       0.64226336
C        1.78714474       0.01002794       0.00389507
H        2.44202412       0.67113390       0.66197326
H        2.45385902      -0.65136977      -0.64189061
C        0.91606151      -0.90478549       0.90901405
