129
Properties=species:S:1:pos:R:3 pbc="F F F"
C        0.00000000       0.00000000       0.00000000
C        0.88164037       0.88164037      -0.88164037
C        1.75029164       0.29160035      -1.79830793
C        2.56735915       1.09683449      -2.59694827
C        2.51625781       2.49459250      -2.47884431
C        1.63282432       3.07528720      -1.55798488
C        0.81676395       2.26893302      -0.75892959
C        3.41297394       3.37566643      -3.29147251
O        3.38777659       4.58770609      -3.11814146
N        4.30109875       2.71288507      -4.09487334
C        4.58424119       3.11301511      -5.28787446
S        3.81785997       4.43195809      -6.13496399
C        4.66025036       4.08529243      -7.67198495
C        5.61459100       2.95631207      -7.39997614
O        6.39412146       2.58564467      -8.27534824
N        5.50241575       2.46399223      -6.10299321
C        6.29490829       1.34383360      -5.65727490
C        6.71514038       0.34562182      -6.55410034
C        7.46075113      -0.76071252      -6.12431640
C        7.80315454      -0.88714395      -4.78400472
Br       8.79697726      -2.38231061      -4.19854651
C        7.41654466       0.08827088      -3.87450219
C        6.67603103       1.19425116      -4.31159018
H        1.80577350      -0.79003765      -1.89396603
H        3.24845795       0.62003631      -3.29808422
H        1.58518997       4.15761235      -1.45047513
H        0.14303865       2.73221837      -0.04240083
H        3.94347842       3.77810039      -8.43784422
H        5.21705447       4.96475040      -8.00536714
H        6.44847817       0.37940585      -7.60788096
H        7.76056145      -1.51497804      -6.84763634
H        7.68885799       0.00954794      -2.82488707
H        6.44147681       1.95063552      -3.56669042
C       -0.88164037      -0.88164037      -0.88164037
C       -1.74958062      -1.79899598      -0.29162333
C       -2.54784596      -2.61583069      -1.09746527
C       -2.47816172      -2.51570893      -2.49582398
C       -1.60619960      -1.58374894      -3.07614786
C       -0.80744986      -0.76794260      -2.26923410
C       -3.29035865      -3.41012421      -3.37963003
O       -3.15847313      -3.34003257      -4.59511844
N       -4.04209820      -4.34550157      -2.72125740
C       -5.23802166      -4.65522777      -3.09188133
S       -6.15295661      -3.87535052      -4.35647493
C       -7.64955031      -4.77931562      -3.98866181
C       -7.30934535      -5.76000558      -2.90152829
O       -8.14623275      -6.57987482      -2.52900680
N       -6.00095529      -5.62056921      -2.44787669
C       -5.49274875      -6.43350423      -1.36976380
C       -6.34172761      -6.91544236      -0.35769257
C       -5.85141341      -7.68163146       0.70868987
C       -4.49727215      -7.98302281       0.78027965
Br      -3.83046162      -9.00451706       2.22176551
C       -3.63378348      -7.53498373      -0.21055053
C       -4.13121744      -6.77414139      -1.27651353
H       -1.80725047      -1.89253681       0.79008540
H       -3.21032207      -3.33498734      -0.62126907
H       -1.53646040      -1.49762949      -4.15918756
H       -0.12890853      -0.05607419      -2.73267514
H       -8.42747769      -4.09879247      -3.63315288
H       -7.99394023      -5.31824560      -4.87498618
H       -7.40410958      -6.68314081      -0.34851459
H       -6.53910274      -8.02961079       1.47549378
H       -2.57388046      -7.77452040      -0.17489214
H       -3.41993511      -6.49055927      -2.04830836
C       -0.88164037       0.88164037       0.88164037
C       -1.48063478       2.01835572       0.34120943
C       -2.27744741       2.83352462       1.15016989
C       -2.47564441       2.51198602       2.50206420
C       -1.87321329       1.36182054       3.03106256
C       -1.07558188       0.54772669       2.22131799
C       -3.28823528       3.39326286       3.39861475
O       -3.38862654       3.11744788       4.58754972
N       -3.75928757       4.53700690       2.81256269
C       -4.94137863       4.99644000       3.04731213
S       -6.17562067       4.21096321       3.99819817
C       -7.42758530       5.41375977       3.57618266
C       -6.75344090       6.47064175       2.74679656
O       -7.37601441       7.47409525       2.40500471
N       -5.42135235       6.16914328       2.47890556
C       -4.61091549       7.03146162       1.65363967
C       -5.18171244       7.80542180       0.62772830
C       -4.39784933       8.62373266      -0.19722698
C       -3.02306202       8.68469817      -0.00774489
Br      -1.96170887       9.77632279      -1.12481849
C       -2.42921883       7.94430401       1.00579490
C       -3.21911809       7.13253090       1.83022338
H       -1.32854209       2.28340064      -0.70224084
H       -2.72713699       3.72349717       0.71594432
H       -2.01268884       1.10162371       4.07896490
H       -0.60688490      -0.33611110       2.64688405
H       -8.22306150       4.94558092       2.99078062
H       -7.83970949       5.86520495       4.48225757
H       -6.24794496       7.77152185       0.41629817
H       -4.87612904       9.20141644      -0.98432572
H       -1.35625982       7.99246995       1.17456324
H       -2.70904947       6.61245885       2.63729443
C        0.88164037      -0.88164037       0.88164037
C        1.18807626      -0.47340192       2.17872175
C        2.00555964      -1.27302230       2.98255998
C        2.51799142      -2.48292971       2.48877349
C        2.19602050      -2.88520221       1.18487368
C        1.37911903      -2.08416481       0.38134272
C        3.43105490      -3.33408174       3.31497625
O        3.91112665      -4.35145819       2.83103931
N        3.75733317      -2.81344579       4.53807821
C        3.84390249      -3.54320643       5.59802184
S        3.43636140      -5.23593175       5.71248891
C        3.64709278      -5.28439721       7.48603774
C        4.14095994      -3.92724539       7.90267388
O        4.46184104      -3.72177318       9.07150015
N        4.19894179      -3.03125145       6.83920795
C        4.59839247      -1.65929819       7.03832612
C        4.35821867      -0.99982375       8.25682013
C        4.71704267       0.34145441       8.44876675
C        5.32788127       1.04917686       7.42131089
Br       5.80175308       2.85994146       7.67140154
C        5.59266866       0.42360907       6.21025815
C        5.23630451      -0.91875822       6.02680964
H        0.80455817       0.46547885       2.57062256
H        2.24515787      -0.93372645       3.98769415
H        2.58989880      -3.81815273       0.78522592
H        1.14504740      -2.40371547      -0.63110501
H        2.69248253      -5.48977127       7.97716923
H        4.38453841      -6.04347571       7.75915789
H        3.85550198      -1.49732290       9.08294010
H        4.50775110       0.81787425       9.40334290
H        6.08237120       0.96092894       5.40185075
H        5.51003407      -1.37167027       5.07709841
