157
Properties=species:S:1:pos:R:3 pbc="F F F"
C        0.00000000       0.00000000       0.00000000
N       -1.33194062       3.30699370      -7.75247143
C       -0.41809549       2.61687935      -7.63648082
C        0.69821204       1.77389568      -7.49479490
C        1.61814070       1.96589203      -6.51729029
S        1.65001803       3.45539445      -5.59595030
C        3.28569856       3.13582074      -4.89013622
H        3.99407614       3.79940136      -5.39923080
C        3.37607899       3.37279844      -3.37548138
C        2.49915626       2.50001218      -2.50062946
C        2.96806022       1.26408604      -2.03097803
C        2.16253104       0.45707828      -1.22392436
C        0.88169166       0.88169166      -0.88169166
C        0.40098333       2.10723896      -1.33553103
C        1.20912351       2.91494854      -2.13951106
C        3.64917615       1.71947425      -5.28201716
O        4.68292814       1.18805518      -4.88057127
N        2.67826481       1.13689445      -6.13085419
C        2.72170928      -0.28826398      -6.27708818
C        3.91173369      -0.93580722      -6.64141597
C        3.95825056      -2.32745163      -6.76526088
C        2.81908095      -3.08331926      -6.50172493
Br       2.88609334      -4.96545464      -6.65310872
C        1.63507886      -2.46056592      -6.11702862
C        1.58584767      -1.06728417      -6.00572320
C        0.72330702       0.63658975      -8.44957967
O       -0.26362458      -0.05547934      -8.66667288
N        1.88570826       0.43336096      -9.13163419
H        4.41752369       3.23143324      -3.05426455
H        3.15666148       4.42642050      -3.15546281
H        3.97016239       0.91907975      -2.28340693
H        2.54593582      -0.49541242      -0.86654250
H       -0.59692107       2.44515638      -1.06761343
H        0.82045369       3.87345441      -2.47899508
H        4.81612831      -0.36650259      -6.84539425
H        4.88805533      -2.80859005      -7.05746256
H        0.74687528      -3.04680804      -5.89216838
H        0.65748531      -0.61333669      -5.66669622
H        2.74706048       0.93056952      -8.95747738
H        1.91781853      -0.36767949      -9.75214087
N       -8.24876823      -2.09502358       0.61626729
C       -7.49425134      -2.96420758       0.62319424
C       -6.57258687      -4.02595248       0.63163673
C       -5.62157875      -4.15324372      -0.32650057
S       -5.69831649      -3.20541346      -1.79763283
C       -4.45433901      -4.20004924      -2.65726727
H       -4.98331378      -4.81508192      -3.39431260
C       -3.37384174      -3.37680248      -3.37371458
C       -2.50076591      -2.49967895      -2.49935303
C       -1.31792017      -3.00539249      -1.93981162
C       -0.51040510      -2.19951150      -1.13361708
C       -0.88169166      -0.88169166      -0.88169166
C       -2.05038163      -0.36155457      -1.43181712
C       -2.85504918      -1.16758520      -2.24094873
C       -3.87866225      -5.14650468      -1.62550063
O       -2.94929231      -5.90429034      -1.89797194
N       -4.53476713      -5.03458195      -0.37666435
C       -3.86508096      -5.60192252       0.75647000
C       -3.41956278      -6.93204491       0.73426525
C       -2.74956016      -7.47899752       1.83249787
C       -2.49938272      -6.69050804       2.95240415
Br      -1.57937948      -7.42472861       4.43036067
C       -2.91372761      -5.36198129       2.98416734
C       -3.59524639      -4.81916502       1.89012472
C       -6.69394681      -4.92389239       1.80836277
O       -6.80400342      -4.49320957       2.94964403
N       -6.74466694      -6.26239917       1.55636270
H       -2.71516992      -4.05951142      -3.92854012
H       -3.84151965      -2.75105126      -4.14597389
H       -1.00858428      -4.03223095      -2.13183385
H        0.40465090      -2.60887606      -0.71284074
H       -2.34248696       0.66811907      -1.24148084
H       -3.76109370      -0.74253510      -2.66927438
H       -3.59746935      -7.56501736      -0.13253326
H       -2.42073392      -8.51442596       1.79823205
H       -2.70524582      -4.73574254       3.84875275
H       -3.87245780      -3.76824179       1.92985475
H       -6.60285813      -6.68061306       0.64836380
H       -6.78505835      -6.87801579       2.36079425
N       -8.32330769       1.83076316      -0.42654634
C       -7.59612674       2.72123841      -0.48210047
C       -6.70785370       3.80899174      -0.54994283
C       -5.73327734       3.99341542       0.37463027
S       -5.73765135       3.08894361       1.87476781
C       -4.49967498       4.14558631       2.66639423
H       -5.02512363       4.76687395       3.40071072
C       -3.37393561       3.37679595       3.37362726
C       -2.50077456       2.49963693       2.49938640
C       -1.35090932       3.02280088       1.88941410
C       -0.54340497       2.21695860       1.08317010
C       -0.88169166       0.88169166       0.88169166
C       -2.01725300       0.34424865       1.48225166
C       -2.82183019       1.15041392       2.29133900
C       -3.98379269       5.07679183       1.59008304
O       -3.07027393       5.86963623       1.81164443
N       -4.67278439       4.90758548       0.36564357
C       -4.05443317       5.45970868      -0.80360836
C       -3.64914066       6.80246821      -0.83426643
C       -3.02882200       7.33529333      -1.96805551
C       -2.78794838       6.52081900      -3.07128077
Br      -1.93476810       7.23657072      -4.59759141
C       -3.16242650       5.18028345      -3.05116840
C       -3.79450060       4.65112331      -1.92133721
C       -6.89118577       4.66672733      -1.74843667
O       -7.02174282       4.19844804      -2.87262189
N       -6.97515349       6.01020128      -1.53465136
H       -2.72024748       4.09522944       3.88774455
H       -3.79934077       2.76129799       4.17790603
H       -1.06743109       4.06369548       2.04152251
H        0.34594202       2.64017446       0.62283346
H       -2.28338009      -0.69891838       1.33138702
H       -3.70147348       0.71202253       2.75940717
H       -3.82055077       7.45599685       0.01847235
H       -2.73079158       8.38054469      -1.97440844
H       -2.96060825       4.53445282      -3.90282545
H       -4.04065243       3.59174920      -1.92155679
H       -6.81938312       6.45986097      -0.64413670
H       -7.05800231       6.59958924      -2.35531164
N       -0.91981894      -2.55943058       8.08791287
C        0.03228208      -1.96138716       7.84159544
C        1.19531929      -1.23087239       7.54071094
C        2.01017443      -1.57737257       6.51377603
S        1.84554973      -3.13210487       5.72370818
C        3.43487708      -3.01037544       4.86640299
H        4.12972387      -3.68996815       5.37301629
C        3.37628640      -3.37286784       3.37520458
C        2.49921492      -2.49989024       2.50069273
C        3.02214055      -1.34952558       1.89145816
C        2.21659738      -0.54264803       1.08428826
C        0.88169166      -0.88169166       0.88169166
C        0.34650618      -2.02198368       1.47526344
C        1.15432414      -2.83002410       2.27923488
C        3.94107425      -1.60388316       5.10571015
O        4.97531944      -1.19622260       4.58001255
N        3.09535311      -0.87523016       5.97543017
C        3.26335496       0.54805185       5.99523037
C        4.52752604       1.11802738       6.20784379
C        4.69402094       2.50599531       6.20803417
C        3.59960697       3.33348574       5.97136539
Br       3.82747697       5.20902790       5.95529836
C        2.34162740       2.78601059       5.73592475
C        2.17338114       1.39763723       5.74854278
C        1.39163206      -0.02818515       8.38965923
O        0.48454243       0.76079001       8.62381655
N        2.62054865       0.12790339       8.95805816
H        4.39429639      -3.34694579       2.96197929
H        3.05647497      -4.41788761       3.26418221
H        4.06623960      -1.07276233       2.03364714
H        2.64187607       0.34237628       0.61756611
H       -0.69419095      -2.29328647       1.31675321
H        0.72180973      -3.72198267       2.72911079
H        5.39836623       0.49123835       6.38789209
H        5.68044909       2.92729047       6.38376921
H        1.48641544       3.42658988       5.53241006
H        1.18651984       0.99953393       5.52385893
H        3.42194731      -0.45339937       8.75976070
H        2.76870477       0.96966110       9.50323623
