190
Properties=species:S:1:pos:R:3 pbc="F F F"
N        1.73709121       9.65933179      -1.72776543
C        2.79017012       9.50027926      -2.16428704
C        4.07654378       9.30599088      -2.69751385
C        4.36850063       8.12873666      -3.29889550
S        3.39415908       6.70351031      -3.04572996
C        4.76305285       5.58869837      -3.48996082
H        5.31317232       5.32442493      -2.57947533
C        4.28587361       4.33408718      -4.23179380
C        3.41160847       3.42125092      -3.39593509
C        2.01336094       3.54057889      -3.43651550
C        1.20550900       2.73388334      -2.63154531
C        1.79189902       1.79189902      -1.79189902
C        3.17732826       1.64975185      -1.74903623
C        3.98539170       2.46573473      -2.54633306
C        5.67887041       6.44784945      -4.35599605
O        6.51198580       5.95538088      -5.11260987
N        5.42100543       7.82864636      -4.16127218
C        5.93434566       8.75269499      -5.13365214
C        5.06734777       9.66484745      -5.76744701
C        5.53883493      10.54194845      -6.74606195
C        6.88512138      10.51983154      -7.09844885
Br       7.52497807      11.70554020      -8.42087528
C        7.75651025       9.62019826      -6.48765349
C        7.27977638       8.73130030      -5.51776664
C        5.07858272      10.40289690      -2.55663995
O        6.28318384      10.15768926      -2.50573852
N        4.57311812      11.67388705      -2.39679933
C        5.43297679      12.79053861      -2.07069642
H        3.75695582       4.60651236      -5.15564424
H        5.15503798       3.75404822      -4.57102494
H        1.54007792       4.27535464      -4.08447680
H        0.12596171       2.85347995      -2.66551470
H        3.63699384       0.91114441      -1.09801455
H        5.06602793       2.34561495      -2.49942081
H        4.00158880       9.67210854      -5.55366939
H        4.84884083      11.22222392      -7.23713920
H        8.80925905       9.59710196      -6.75926887
H        7.97748684       8.04181448      -5.04872610
H        3.57606988      11.84192576      -2.33063497
H        5.04202001      13.68045637      -2.56774612
H        6.46304196      12.60959534      -2.38650823
H        5.40322219      12.93728328      -0.98759015
N        0.90971229      -7.05292737      -6.98097335
C       -0.13879376      -7.49864921      -6.81729344
C       -1.41958151      -8.04311444      -6.61735256
C       -2.40631090      -7.24666800      -6.14315389
S       -2.06018671      -5.72957819      -5.35363446
C       -3.64416166      -5.74108251      -4.45646787
H       -3.49777742      -6.23190809      -3.48738707
C       -4.23396402      -4.33623183      -4.28155873
C       -3.39800759      -3.42329900      -3.40748789
C       -2.44744873      -2.56316476      -3.97984184
C       -1.64112111      -1.75512776      -3.17468877
C       -1.79189902      -1.79189902      -1.79189902
C       -2.73995531      -2.62899646      -1.20716458
C       -3.53824393      -3.44595945      -2.01325610
C       -4.54587599      -6.63549233      -5.30134758
O       -5.77013377      -6.60515820      -5.20468457
N       -3.78366011      -7.45548310      -6.17178076
C       -4.46431347      -8.09124210      -7.26513722
C       -3.99888133      -7.91711803      -8.58364286
C       -4.67124809      -8.49157890      -9.66401833
C       -5.81498197      -9.25148576      -9.43693403
Br      -6.72524128     -10.02988323     -10.89626903
C       -6.29442785      -9.42924910      -8.14068505
C       -5.62825891      -8.84049081      -7.06009359
C       -1.63258153      -9.48972523      -6.91581281
O       -2.48839741     -10.14055246      -6.31766175
N       -0.76404102     -10.06036499      -7.81939849
C       -0.75235926     -11.48773337      -8.05411920
H       -4.40070625      -3.86046864      -5.25793753
H       -5.23498230      -4.41018321      -3.83494564
H       -2.31455644      -2.52628650      -5.05906642
H       -0.89981485      -1.10858261      -3.63655890
H       -2.86296465      -2.65530084      -0.12788731
H       -4.27187748      -4.09718951      -1.54199671
H       -3.14008103      -7.28695575      -8.80032996
H       -4.30722486      -8.32682821     -10.67415086
H       -7.18811115     -10.02089185      -7.95662688
H       -6.01513069      -8.99683342      -6.05606331
H        0.00444671      -9.53435472      -8.21872260
H       -0.52295371     -11.65975458      -9.10751420
H       -1.71273324     -11.94375840      -7.80265390
H        0.03429078     -11.92744158      -7.43494481
N       -8.75283838      -0.37741095       4.74876100
C       -8.49774700       0.45164607       5.50534335
C       -8.18614372       1.46436896       6.42953583
C       -7.29387755       2.42109385       6.08116139
S       -6.19397367       2.20560511       4.74382057
C       -5.01102167       3.41555419       5.41513619
H       -4.28477268       2.88806151       6.04423839
C       -4.30805024       4.22513938       4.31856497
C       -3.41419852       3.39515791       3.41943806
C       -3.90708378       2.86827658       2.21509497
C       -3.10135103       2.06267049       1.40691612
C       -1.79189902       1.79189902       1.79189902
C       -1.28133640       2.31795601       2.97682394
C       -2.09232704       3.11437448       3.79075796
C       -5.85772204       4.30232903       6.32266483
O       -5.48728079       5.42008743       6.67260834
N       -7.07573319       3.66474719       6.67044359
C       -8.12733265       4.47561468       7.21774545
C       -9.40676573       4.46534190       6.62753459
C      -10.43026403       5.27831792       7.11826338
C      -10.18658963       6.10779556       8.20901658
Br     -11.56935173       7.20730248       8.87473934
C       -8.92581759       6.13678591       8.80175850
C       -7.89657711       5.33268666       8.29957955
C       -8.83811214       1.42853878       7.77146865
O       -8.28125784       1.90618752       8.75916626
N      -10.03790988       0.75700954       7.84888508
C      -10.67481641       0.49780665       9.12158877
H       -5.04096165       4.77035972       3.70779105
H       -3.69189646       5.01006171       4.77815297
H       -4.93006331       3.06726266       1.90258339
H       -3.50723224       1.65091558       0.48680854
H       -0.25741983       2.11210460       3.27662837
H       -1.68077657       3.51521444       4.71507270
H       -9.61534480       3.86918073       5.74284120
H      -11.40297976       5.27047503       6.63474914
H       -8.72863623       6.78346092       9.65353273
H       -6.92201973       5.36543427       8.78057342
H      -10.42674349       0.27499130       7.04689582
H      -11.75604539       0.55310572       8.98107140
H      -10.36059734       1.21699038       9.88155782
H      -10.40133829      -0.51216686       9.43892418
N        8.36380325       0.62159950       5.38198468
C        8.11886271      -0.27510830       6.06076540
C        7.81965907      -1.37046904       6.88992041
C        7.02412387      -2.35739871       6.41461022
S        6.00393634      -2.12048692       5.01897609
C        4.86884278      -3.45245517       5.52041410
H        4.06581648      -3.02169978       6.12955632
C        4.30136653      -4.22630110       4.32408695
C        3.41247371      -3.39562834       3.42069243
C        3.94593160      -2.75136218       2.29316155
C        3.14037241      -1.94557914       1.48498609
C        1.79189902      -1.79189902       1.79189902
C        1.24209570      -2.43513328       2.89888737
C        2.05183801      -3.23183489       3.71378659
C        5.71434324      -4.34341988       6.42495278
O        5.40276040      -5.50586300       6.67135315
N        6.85708379      -3.65214003       6.90170015
C        7.92522764      -4.42782574       7.46763941
C        9.23736345      -4.28905342       6.97322536
C       10.28149775      -5.06464805       7.48069952
C       10.02548631      -5.98509683       8.49281863
Br      11.43602765      -7.03429281       9.18107309
C        8.73309985      -6.14142366       8.98983849
C        7.68466090      -5.37422313       8.46995929
C        8.37566646      -1.38772648       8.27472662
O        7.78956462      -1.97168208       9.18536491
N        9.51600855      -0.64439884       8.48339711
C       10.04557833      -0.43539308       9.81324041
H        5.11106876      -4.67557125       3.73247240
H        3.71390384      -5.08194951       4.68425779
H        4.99928111      -2.85808721       2.04254104
H        3.57644316      -1.44221722       0.62629599
H        0.18817296      -2.32072331       3.13725653
H        1.60905596      -3.72501937       4.57698837
H        9.46141874      -3.61799859       6.14794940
H       11.28141289      -4.95660261       7.07018844
H        8.52624103      -6.85960712       9.77978174
H        6.68487785      -5.50699412       8.87615544
H        9.92210975      -0.08077661       7.74574425
H       11.13497421      -0.40761409       9.74763421
H        9.73364979      -1.22698126      10.49851449
H        9.67929355       0.52840331      10.17720538
C       -0.00445707       0.01189536      -1.78238275
H       -0.66409135       0.67374010      -2.43557963
H        0.65740317      -0.63156657      -2.45157240
C       -0.90989263      -0.90692880      -0.91072765
C        0.90977584       0.90977584      -0.90977584
C       -0.00465871       1.77757030       0.00794375
H       -0.66225468       2.44313916      -0.64384735
H        0.64322798       2.43503045       0.67728295
C       -1.78241447       0.00034974      -0.00472694
H       -2.45427497      -0.65498947       0.64260836
H       -2.43311707       0.67328779      -0.65473579
C       -0.91132561       0.90220522       0.91563759
C       -0.01476271      -0.02253852       1.78660255
H       -0.67934791      -0.69751639       2.42135241
H        0.63392994       0.61504881       2.47327442
C        0.01484550      -1.77751727      -0.01636693
H        0.67870853      -2.42144646      -0.68295456
H       -0.62264859      -2.45592969       0.64226336
C        1.78714474       0.01002794       0.00389507
H        2.44202412       0.67113390       0.66197326
H        2.45385902      -0.65136977      -0.64189061
C        0.91606151      -0.90478549       0.90901405
