177
Properties=species:S:1:pos:R:3 pbc="F F F"
C        0.00000000       0.00000000       0.00000000
N        0.82718718       8.74942776      -0.81786141
C        1.88026610       8.59037523      -1.25438302
C        3.16663976       8.39608686      -1.78760983
C        3.45859661       7.21883264      -2.38899147
S        2.48425505       5.79360629      -2.13582594
C        3.85314883       4.67879435      -2.58005680
H        4.40326829       4.41452091      -1.66957131
C        3.37596958       3.42418316      -3.32188977
C        2.50170445       2.51134690      -2.48603107
C        1.10345691       2.63067486      -2.52661148
C        0.29560497       1.82397931      -1.72164128
C        0.88199500       0.88199500      -0.88199500
C        2.26742424       0.73984783      -0.83913221
C        3.07548768       1.55583070      -1.63642903
C        4.76896638       5.53794542      -3.44609203
O        5.60208177       5.04547686      -4.20270585
N        4.51110141       6.91874233      -3.25136815
C        5.02444164       7.84279096      -4.22374811
C        4.15744374       8.75494342      -4.85754298
C        4.62893090       9.63204442      -5.83615793
C        5.97521736       9.60992751      -6.18854482
C        6.84660623       8.71029424      -5.57774946
C        6.36987236       7.82139627      -4.60786262
C        4.16867870       9.49299287      -1.64673592
O        5.37327982       9.24778523      -1.59583449
N        3.66321410      10.76398302      -1.48689531
C        4.52307277      11.88063459      -1.16079240
H        2.84705179       3.69660834      -4.24574021
H        4.24513395       2.84414420      -3.66112092
H        0.63017390       3.36545062      -3.17457277
H       -0.78394231       1.94357593      -1.75561068
H        2.72708981       0.00124038      -0.18811053
H        4.15612391       1.43571093      -1.58951679
H        3.09168478       8.76220452      -4.64376537
H        3.93893680      10.31231989      -6.32723517
H        7.89935503       8.68719793      -5.84936485
H        7.06758281       7.13191045      -4.13882208
H        2.66616585      10.93202173      -1.42073095
H        4.13211599      12.77055235      -1.65784209
H        5.55313794      11.69969132      -1.47660421
H        4.49331816      12.02737925      -0.07768613
C        6.46327176      10.51433369      -7.19723327
C        6.87201732      11.27177385      -8.04200984
Br       7.53292433      12.49649055      -9.40794210
N       -5.31169125       1.74662598      -6.82941109
C       -5.21064979       0.65011453      -7.16448908
C       -5.08722402      -0.68931355      -7.57379888
C       -4.78051724      -1.63304416      -6.65285932
S       -4.09666175      -1.21376263      -5.10326290
C       -3.35719157      -2.86367258      -4.89113582
H       -2.33952713      -2.84973262      -5.29810076
C       -3.36235208      -3.32967702      -3.43001342
C       -2.49530246      -2.48969208      -2.51408787
C       -3.04702194      -1.41517353      -1.79854779
C       -2.24200785      -0.60858049      -0.99063722
C       -0.88199500      -0.88199500      -0.88199500
C       -0.31976558      -1.95291112      -1.57372757
C       -1.12416586      -2.75230274      -2.39127881
C       -4.20318350      -3.76963796      -5.78018237
O       -4.22681878      -4.98915727      -5.63428843
N       -4.92218287      -3.01628905      -6.74273998
C       -6.01598960      -3.65672616      -7.41826495
C       -7.29418380      -3.06378157      -7.41196478
C       -8.37966425      -3.69128121      -8.02618780
C       -8.19748453      -4.91772958      -8.65847559
C       -6.94238115      -5.52298007      -8.66928871
C       -5.85852285      -4.90028054      -8.04032786
C       -5.27756565      -1.01261305      -9.01822880
O       -4.70944564      -1.97545158      -9.53200232
N       -6.04100110      -0.12714522      -9.74594611
C       -6.14836825      -0.23135857     -11.18477293
H       -4.38788501      -3.36460658      -3.03690875
H       -3.00858361      -4.36824878      -3.37356668
H       -4.10772984      -1.18591400      -1.87655345
H       -2.68554531       0.22843419      -0.45813317
H        0.74101722      -2.17136590      -1.48609205
H       -0.67017764      -3.58297362      -2.92820037
H       -7.48195244      -2.13316756      -6.88253466
H       -9.36093219      -3.22663841      -7.99092127
H       -6.79365101      -6.48166755      -9.16059925
H       -4.88621880      -5.38624664      -8.06584991
H       -6.40942817       0.71987343      -9.32936379
H       -7.15606395       0.07141856     -11.47586504
H       -5.95096837      -1.24910277     -11.52936233
H       -5.42101939       0.45282473     -11.63018888
C       -9.31584791      -5.56597249      -9.29301831
C      -10.25247725      -6.10887593      -9.82444783
Br     -11.76692767      -6.98670488     -10.68372443
N       -0.32495346       1.35356724       8.71595566
C       -0.83945452       2.36456101       8.52100882
C       -1.46793602       3.59952617       8.28287426
C       -2.15945341       3.77471797       7.13224934
S       -1.93135265       2.72557732       5.75675730
C       -2.53396200       3.98716276       4.59087521
H       -1.68020764       4.57411432       4.23303855
C       -3.31911404       3.38253454       3.42039394
C       -2.48549608       2.50331967       2.51026667
C       -2.42568144       1.11626536       2.71879645
C       -1.62062734       0.30831086       1.91228737
C       -0.88199500       0.88199500       0.88199500
C       -0.94010586       2.25491167       0.65138675
C       -1.73695456       3.06417065       1.46662220
C       -3.40372964       4.90231697       5.44695722
O       -4.24314269       5.65221341       4.95490838
N       -3.10678125       4.74928129       6.82514936
C       -4.05170203       5.26131738       7.77796131
C       -4.56856887       4.41901782       8.78234346
C       -5.51984222       4.88587052       9.69142051
C       -5.96149711       6.20317948       9.60901311
C       -5.46704685       7.04925160       8.61835148
C       -4.52485122       6.57584789       7.69843214
C       -1.32589879       4.67897706       9.30353164
O       -1.37041551       5.86547555       8.98100848
N       -1.05408831       4.26991011      10.59009402
C       -0.71692506       5.22060639      11.62696830
H       -4.18707785       2.81640616       3.78591633
H       -3.75071676       4.18848927       2.81119304
H       -2.99382379       0.65339397       3.52297952
H       -1.57536454      -0.76093564       2.10081539
H       -0.36825044       2.70415820      -0.15596792
H       -1.76943300       4.13527221       1.27664642
H       -4.28449146       3.37146234       8.84170086
H       -5.92075915       4.21333137      10.44440135
H       -5.80884401       8.07920104       8.54787276
H       -4.14696484       7.25408891       6.93726159
H       -0.91156826       3.29226627      10.81508401
H       -1.13059222       4.85940681      12.57051140
H       -1.11105159       6.21473990      11.40364197
H        0.37279534       5.26810889      11.70306999
C       -6.94211980       6.68647170      10.54624721
C       -7.76339130       7.09122894      11.33118078
Br      -9.09131786       7.74568715      12.60035196
N        5.29454957      -6.84348993      -1.74356315
C        5.86408752      -6.62780606      -0.76686923
C        6.55979854      -6.36434047       0.42619743
C        5.92369408      -5.71394260       1.42878404
S        4.46189489      -4.80328875       1.14850364
C        4.73039355      -3.76329432       2.61831211
H        5.29424232      -2.87132707       2.32179112
C        3.42063931      -3.38214081       3.31926239
C        2.51221012      -2.50020124       2.48667106
C        1.50353816      -3.06624555       1.69095954
C        0.69540532      -2.26089649       0.88492376
C        0.88199500      -0.88199500       0.88199500
C        1.86880349      -0.30146808       1.67613271
C        2.68481381      -1.10948373       2.47344987
C        5.63038810      -4.60798730       3.51462843
O        5.74126597      -4.39043906       4.71855944
N        6.27550994      -5.63122218       2.77447978
C        6.87174605      -6.71541303       3.50382163
C        6.52167449      -8.04644395       3.20181170
C        7.05762520      -9.11200805       3.92750000
C        7.95441741      -8.85811206       4.96116023
C        8.30743857      -7.54813651       5.27907485
C        7.75802766      -6.48022206       4.56088153
C        7.98514721      -6.79443148       0.52882881
O        8.77903603      -6.18955668       1.24830683
N        8.36890617      -7.83398558      -0.28879933
C        9.75725379      -8.22071449      -0.41346853
H        2.87317430      -4.28097455       3.63525150
H        3.64463604      -2.85116259       4.25460044
H        1.34818277      -4.14303120       1.67898332
H       -0.06873736      -2.72028715       0.26369450
H        2.01263961       0.77554792       1.67934903
H        3.45367771      -0.64204948       3.08562444
H        5.78488043      -8.27637788       2.43639636
H        6.75760761     -10.12908999       3.69179426
H        9.00670388      -7.34296941       6.08624452
H        8.05158894      -5.46606059       4.82066582
H        7.72717129      -8.24707188      -0.95532464
H        9.80073431      -9.30373810      -0.54396198
H       10.33602557      -7.92781673       0.46559116
H       10.16782804      -7.73152873      -1.30097323
C        8.50861573      -9.95601616       5.71020682
C        8.97275682     -10.87551085       6.33753334
Br       9.72323372     -12.36225600       7.35186726
