198
Properties=species:S:1:pos:R:3 pbc="F F F"
N        1.73709121       9.65933179      -1.72776543
C        2.79017012       9.50027926      -2.16428704
C        4.07654378       9.30599088      -2.69751385
C        4.36850063       8.12873666      -3.29889550
S        3.39415908       6.70351031      -3.04572996
C        4.76305285       5.58869837      -3.48996082
H        5.31317232       5.32442493      -2.57947533
C        4.28587361       4.33408718      -4.23179380
C        3.41160847       3.42125092      -3.39593509
C        2.01336094       3.54057889      -3.43651550
C        1.20550900       2.73388334      -2.63154531
C        1.79189902       1.79189902      -1.79189902
C        3.17732826       1.64975185      -1.74903623
C        3.98539170       2.46573473      -2.54633306
C        5.67887041       6.44784945      -4.35599605
O        6.51198580       5.95538088      -5.11260987
N        5.42100543       7.82864636      -4.16127218
C        5.93434566       8.75269499      -5.13365214
C        5.06734777       9.66484745      -5.76744701
C        5.53883493      10.54194845      -6.74606195
C        6.88512138      10.51983154      -7.09844885
C        7.75651025       9.62019826      -6.48765349
C        7.27977638       8.73130030      -5.51776664
C        5.07858272      10.40289690      -2.55663995
O        6.28318384      10.15768926      -2.50573852
N        4.57311812      11.67388705      -2.39679933
C        5.43297679      12.79053861      -2.07069642
H        3.75695582       4.60651236      -5.15564424
H        5.15503798       3.75404822      -4.57102494
H        1.54007792       4.27535464      -4.08447680
H        0.12596171       2.85347995      -2.66551470
H        3.63699384       0.91114441      -1.09801455
H        5.06602793       2.34561495      -2.49942081
H        4.00158880       9.67210854      -5.55366939
H        4.84884083      11.22222392      -7.23713920
H        8.80925905       9.59710196      -6.75926887
H        7.97748684       8.04181448      -5.04872610
H        3.57606988      11.84192576      -2.33063497
H        5.04202001      13.68045637      -2.56774612
H        6.46304196      12.60959534      -2.38650823
H        5.40322219      12.93728328      -0.98759015
C        7.37317579      11.42423771      -8.10713729
C        7.78192135      12.18167788      -8.95191386
Br       8.44282835      13.40639457     -10.31784613
N       -1.01929685      -9.58813410      -2.51675747
C       -2.12066121      -9.49589507      -2.83818014
C       -3.46601728      -9.38322178      -3.23080946
C       -3.92173266      -8.19132880      -3.68307133
S       -3.06000631      -6.70494502      -3.37844802
C       -4.56156586      -5.69638952      -3.58375667
H       -5.03992892      -5.57168868      -2.60545498
C       -4.27612553      -4.33854231      -4.23708675
C       -3.40917517      -3.42258149      -3.39703783
C       -2.01688605      -3.39791296      -3.57565632
C       -1.20921644      -2.59094613      -2.77077507
C       -1.79189902      -1.79189902      -1.79189902
C       -3.17332399      -1.79288592      -1.60990644
C       -3.97959866      -2.60977102      -2.40808980
C       -5.47755364      -6.56056059      -4.44460167
O       -6.42300001      -6.08706879      -5.06990776
N       -5.07769753      -7.92074269      -4.41248375
C       -5.59958546      -8.79951905      -5.42158828
C       -4.72104720      -9.55968930      -6.21890572
C       -5.20633174     -10.38721297      -7.23330062
C       -6.57746809     -10.46747548      -7.45845820
C       -7.46151489      -9.71806665      -6.68478047
C       -6.97296799      -8.87754103      -5.67833430
C       -4.34565914     -10.58268472      -3.10977572
O       -5.55642557     -10.46426863      -2.92591742
N       -3.71386485     -11.80624580      -3.12369386
C       -4.43238728     -13.02787718      -2.83394737
H       -3.81936461      -4.47222269      -5.22752512
H       -5.22365359      -3.81963426      -4.43682329
H       -1.54594352      -4.02024426      -4.33372158
H       -0.13204679      -2.59887862      -2.91403095
H       -3.63081488      -1.16567865      -0.84965927
H       -5.05660582      -2.60259974      -2.25185813
H       -3.64303451      -9.48009893      -6.10423330
H       -4.50995769     -10.94815530      -7.85009095
H       -8.53382818      -9.77543663      -6.85636507
H       -7.68001609      -8.30624646      -5.08176486
H       -2.70408916     -11.87945610      -3.16508534
H       -4.01395591     -13.82579350      -3.45047309
H       -5.50090757     -12.92257749      -3.03566047
H       -4.28176749     -13.26833225      -1.77799587
C       -7.07969319     -11.32098452      -8.50387307
C       -7.50030671     -12.03579834      -9.37940803
Br      -8.18040320     -13.19159184     -10.79507401
N       -8.03908732      -0.75512274       5.84022385
C       -7.80809628       0.18730241       6.45933774
C       -7.52593243       1.33850852       7.21560756
C       -6.80840873       2.33760976       6.65011430
S       -5.84837133       2.07880861       5.21621941
C       -4.76144450       3.49059448       5.58967306
H       -3.90728760       3.13337198       6.17641300
C       -4.29626663       4.22769911       4.32778885
C       -3.41117287       3.39610671       3.42151490
C       -3.96572807       2.66731330       2.35741396
C       -3.16028818       1.86139280       1.54925666
C       -1.79189902       1.79189902       1.79189902
C       -1.22201684       2.51939844       2.83470107
C       -2.03081254       3.31640676       3.65024019
C       -5.60638522       4.38455408       6.49177660
O       -5.34462156       5.57253317       6.66282182
N       -6.68572297       3.66299320       7.06220780
C       -7.76360340       4.41295312       7.64413627
C       -9.08971586       4.18269672       7.22722964
C      -10.14657577       4.93068393       7.74958562
C       -9.88908967       5.91493219       8.69937990
C       -8.58346995       6.16184427       9.11904778
C       -7.52338148       5.42179003       8.58367181
C       -8.01197213       1.40093028       8.62521716
O       -7.41260027       2.06076606       9.47324529
N       -9.09960675       0.61343341       8.93076434
C       -9.55009367       0.44861659      10.29550156
H       -5.15718033       4.60397762       3.75795446
H       -3.73746316       5.12952731       4.61312067
H       -5.03447686       2.70773812       2.15769438
H       -3.61167618       1.29219757       0.74108262
H       -0.15290482       2.47069128       3.02255669
H       -1.57196786       3.87602598       4.46306986
H       -9.31912682       3.45864236       6.44959756
H      -11.15871188       4.75114842       7.39834364
H       -8.37546765       6.93017592       9.85998631
H       -6.51289813       5.62575121       8.92937808
H       -9.51185856      -0.00797318       8.24474523
H      -10.63842290       0.36285067      10.28894893
H       -9.24641967       1.28990083      10.92282504
H       -9.11567944      -0.47506010      10.68747627
C      -10.97805545       6.68687093       9.23962440
C      -11.89006429       7.33336962       9.69207918
Br     -13.36470545       8.37870332      10.42366028
N        7.80482704       0.82185790       6.14121929
C        7.58620530      -0.14902410       6.71950702
C        7.31915100      -1.33499128       7.42590623
C        6.65675922      -2.33738404       6.80198953
S        5.73742729      -2.06110382       5.34486824
C        4.68871029      -3.52119909       5.63180267
H        3.80311924      -3.21398986       6.19996348
C        4.29278896      -4.22888801       4.33007762
C        3.41029285      -3.39648791       3.42201373
C        3.97469336      -2.61237631       2.40338566
C        3.16932880      -1.80636094       1.59524791
C        1.79189902      -1.79189902       1.79189902
C        1.21286699      -2.57449015       2.78875921
C        2.02101990      -3.37174938       3.60469021
C        5.53343318      -4.41710783       6.53217489
O        5.30790188      -5.61855814       6.65351653
N        6.56678738      -3.67982202       7.16431457
C        7.64997760      -4.41275470       7.75796049
C        8.98056599      -4.12313803       7.39593820
C       10.04471268      -4.85272128       7.92941137
C        9.78987697      -5.87788935       8.83563545
C        8.48024815      -6.18354351       9.20057034
C        7.41359712      -5.46153603       8.65371017
C        7.75897759      -1.43035537       8.84878661
O        7.15472295      -2.13952342       9.65236524
N        8.80729006      -0.61762768       9.21888676
C        9.20514782      -0.48565457      10.60340944
H        5.18522443      -4.55549501       3.77839298
H        3.75664470      -5.15862075       4.56484569
H        5.05036302      -2.60947772       2.24006862
H        3.62760734      -1.19414586       0.82320316
H        0.13694617      -2.56871193       2.94049469
H        1.55479929      -3.97481637       4.38144804
H        9.21065723      -3.36485255       6.65185696
H       11.06125279      -4.62672389       7.62022726
H        8.27434005      -6.98403838       9.90725146
H        6.39975347      -5.71167945       8.95659449
H        9.22050088       0.04111841       8.56924814
H       10.28938875      -0.36283573      10.63799802
H        8.91009909      -1.35827066      11.19077578
H        8.72551213       0.40841459      11.01099807
C       10.88632550      -6.63093451       9.38729077
C       11.80460115      -7.26160984       9.84930210
Br      13.28937521      -8.28135850      10.59633534
C       -0.00445707       0.01189536      -1.78238275
H       -0.66409135       0.67374010      -2.43557963
H        0.65740317      -0.63156657      -2.45157240
C       -0.90989263      -0.90692880      -0.91072765
C        0.90977584       0.90977584      -0.90977584
C       -0.00465871       1.77757030       0.00794375
H       -0.66225468       2.44313916      -0.64384735
H        0.64322798       2.43503045       0.67728295
C       -1.78241447       0.00034974      -0.00472694
H       -2.45427497      -0.65498947       0.64260836
H       -2.43311707       0.67328779      -0.65473579
C       -0.91132561       0.90220522       0.91563759
C       -0.01476271      -0.02253852       1.78660255
H       -0.67934791      -0.69751639       2.42135241
H        0.63392994       0.61504881       2.47327442
C        0.01484550      -1.77751727      -0.01636693
H        0.67870853      -2.42144646      -0.68295456
H       -0.62264859      -2.45592969       0.64226336
C        1.78714474       0.01002794       0.00389507
H        2.44202412       0.67113390       0.66197326
H        2.45385902      -0.65136977      -0.64189061
C        0.91606151      -0.90478549       0.90901405
