146
Properties=species:S:1:pos:R:3 pbc="F F F"
C       -1.77462369       0.65100606      -6.31882642
O       -0.56588359       0.02543782      -5.87453601
C        0.06484868       0.59574018      -4.80255804
O       -0.31254896       1.60247208      -4.22119964
C        1.32045081      -0.22579600      -4.47818511
O        2.11770230       0.00435589      -3.32402690
C        2.34482999       1.31453263      -3.00027147
C        1.79867999       1.79867999      -1.79867999
C        2.05783171       3.10315238      -1.36137235
C        2.88706180       3.93522247      -2.11335877
C        3.21839220       5.28496267      -1.66106776
C        2.51072426       6.37708779      -1.95698709
N        1.34763793       6.46758091      -2.66521168
C        0.96634147       7.79478347      -2.76649412
O       -0.02103327       8.21596836      -3.34219425
N        1.90284190       8.54920776      -2.10734092
C        2.89369835       7.77193878      -1.57734669
O        3.87837535       8.12365779      -0.95898705
C        3.44967912       3.45641522      -3.30047903
C        3.19661502       2.14910725      -3.73412934
Br       4.14509801       1.57017369      -5.27389459
H       -1.58200502       1.13738699      -7.27911753
H       -2.17819585       1.38073385      -5.61171968
H       -2.52210662      -0.13283452      -6.46995442
H        1.95952634      -0.21048491      -5.36605941
H        0.97450244      -1.26195328      -4.37520703
H        1.63088027       3.45850897      -0.42547442
H        4.14150100       5.37839747      -1.08779483
H        0.82426219       5.70191362      -3.06562022
H        1.86998177       9.55227393      -2.04354534
H        4.11719326       4.09785860      -3.87404394
C       -6.07907180      -1.31234108       2.19620409
O       -5.05246968      -2.29301145       2.01139089
C       -4.24304632      -2.13908766       0.91898709
O       -4.34916119      -1.24950516       0.08754359
C       -3.20938112      -3.27405109       0.91059229
O       -2.12139600      -3.32167229      -0.00301680
C       -2.40245593      -2.96353674      -1.29364142
C       -1.79867999      -1.79867999      -1.79867999
C       -1.97328255      -1.41526980      -3.13380409
C       -2.73981140      -2.20722629      -3.98860534
C       -2.90164102      -1.86298673      -5.39979488
C       -3.87460867      -1.08755342      -5.88263706
N       -4.85402328      -0.43000064      -5.19640660
C       -5.67836617       0.23727432      -6.08652720
O       -6.65101596       0.91102855      -5.79714192
N       -5.20611267      -0.00160908      -7.35166884
C       -4.10241791      -0.80682576      -7.33374015
O       -3.45963149      -1.22592316      -8.27546552
C       -3.32915808      -3.37730743      -3.50010787
C       -3.14835666      -3.76489253      -2.16660241
Br      -3.86688409      -5.45124727      -1.67103494
H       -7.04665081      -1.77861920       1.99077051
H       -5.95819377      -0.42502566       1.56896176
H       -6.05945634      -0.99947632       3.24391938
H       -3.76062615      -4.21791459       0.86343990
H       -2.73944182      -3.25011336       1.90179898
H       -1.49323385      -0.51321971      -3.50841010
H       -2.19296004      -2.32992878      -6.08480448
H       -4.98228867      -0.41500833      -4.19449903
H       -5.63603882       0.35719830      -8.18696051
H       -3.90648965      -4.00836090      -4.17424524
C       -5.82237555       1.85481917      -2.48198593
O       -4.75072959       2.75048676      -2.16712611
C       -4.02806172       2.47376858      -1.03868340
O       -4.24586134       1.54267145      -0.27741003
C       -2.92776343       3.53372599      -0.88864950
O       -1.90296201       3.45020860       0.09291449
C       -2.29236034       3.03110271       1.33617104
C       -1.79867999       1.79867999       1.79867999
C       -2.08666775       1.34442826       3.09126044
C       -2.85753860       2.13070664       3.94739780
C       -3.13546051       1.70979853       5.31916358
C       -4.18572729       0.97275299       5.68631886
N       -5.15622257       0.42728208       4.89692587
C       -6.07911058      -0.23777607       5.68628455
O       -7.07062516      -0.82487404       5.29137822
N       -5.67902532      -0.11154967       6.99191494
C       -4.52802862       0.61701196       7.09794324
O       -3.92498116       0.93160141       8.10443761
C       -3.33763592       3.36631577       3.50262168
C       -3.04332139       3.82420489       2.21232533
Br      -3.61899734       5.58303207       1.78713688
H       -6.77024323       2.37132491      -2.30706866
H       -5.80025240       0.92357246      -1.90956719
H       -5.75200598       1.60807443      -3.54506713
H       -3.42027845       4.50771945      -0.81289706
H       -2.39456894       3.54077400      -1.84758674
H       -1.69081819       0.39025481       3.43379065
H       -2.44648763       2.08378704       6.07741864
H       -5.21739403       0.48420988       3.89019211
H       -6.18602384      -0.49256695       7.77234414
H       -3.91809910       3.99103194       4.17996475
C       -1.75932840      -0.62923109       6.32530610
O       -0.55011296      -0.00811994       5.87608326
C        0.07619208      -0.58300008       4.80395473
O       -0.30547626      -1.59027026       4.22632876
C        1.33311927       0.23427364       4.47399429
O        2.12663522      -0.00112827       3.31832160
C        2.34936646      -1.31277809       2.99748954
C        1.79867999      -1.79867999       1.79867999
C        2.05314429      -3.10501707       1.36419508
C        2.88215853      -3.93729480       2.11618971
C        3.20863890      -5.28913421       1.66664952
C        2.49883782      -6.37854837       1.96741295
N        1.33742568      -6.46400182       2.67900303
C        0.95283710      -7.78989469       2.78488726
O       -0.03411092      -8.20686740       3.36437286
N        1.88552590      -8.54860985       2.12525484
C        2.87703607      -7.77544214       1.59050561
O        3.85909361      -8.13147513       0.97045144
C        3.44925884      -3.45681626       3.30049827
C        3.20087988      -2.14766986       3.73130187
Br       4.15506279      -1.56715784       5.26694566
H       -1.56543017      -1.11354618       7.28638349
H       -2.16676536      -1.35976665       5.62125639
H       -2.50429137       0.15702494       6.47632959
H        1.97454229       0.21962687       5.36018542
H        0.98968130       1.27107909       4.36915398
H        1.62271792      -3.46173618       0.43040956
H        4.12994457      -5.38659769       1.09115104
H        0.81719136      -5.69585289       3.07875177
H        1.84979752      -9.55175167       2.06425184
H        4.11658982      -4.09851239       3.87399358
C       -0.00445707       0.01189536      -1.78238275
H       -0.66409135       0.67374010      -2.43557963
H        0.65740317      -0.63156657      -2.45157240
C       -0.90989263      -0.90692880      -0.91072765
C        0.90977584       0.90977584      -0.90977584
C       -0.00465871       1.77757030       0.00794375
H       -0.66225468       2.44313916      -0.64384735
H        0.64322798       2.43503045       0.67728295
C       -1.78241447       0.00034974      -0.00472694
H       -2.45427497      -0.65498947       0.64260836
H       -2.43311707       0.67328779      -0.65473579
C       -0.91132561       0.90220522       0.91563759
C       -0.01476271      -0.02253852       1.78660255
H       -0.67934791      -0.69751639       2.42135241
H        0.63392994       0.61504881       2.47327442
C        0.01484550      -1.77751727      -0.01636693
H        0.67870853      -2.42144646      -0.68295456
H       -0.62264859      -2.45592969       0.64226336
C        1.78714474       0.01002794       0.00389507
H        2.44202412       0.67113390       0.66197326
H        2.45385902      -0.65136977      -0.64189061
C        0.91606151      -0.90478549       0.90901405
