154
Properties=species:S:1:pos:R:3 pbc="F F F"
C       -1.77462369       0.65100606      -6.31882642
O       -0.56588359       0.02543782      -5.87453601
C        0.06484868       0.59574018      -4.80255804
O       -0.31254896       1.60247208      -4.22119964
C        1.32045081      -0.22579600      -4.47818511
O        2.11770230       0.00435589      -3.32402690
C        2.34482999       1.31453263      -3.00027147
C        1.79867999       1.79867999      -1.79867999
C        2.05783171       3.10315238      -1.36137235
C        2.88706180       3.93522247      -2.11335877
C        3.21839220       5.28496267      -1.66106776
C        2.51072426       6.37708779      -1.95698709
N        1.34763793       6.46758091      -2.66521168
C        0.96634147       7.79478347      -2.76649412
O       -0.02103327       8.21596836      -3.34219425
N        1.90284190       8.54920776      -2.10734092
C        2.89369835       7.77193878      -1.57734669
O        3.87837535       8.12365779      -0.95898705
C        3.44967912       3.45641522      -3.30047903
C        3.19661502       2.14910725      -3.73412934
H       -1.58200502       1.13738699      -7.27911753
H       -2.17819585       1.38073385      -5.61171968
H       -2.52210662      -0.13283452      -6.46995442
H        1.95952634      -0.21048491      -5.36605941
H        0.97450244      -1.26195328      -4.37520703
H        1.63088027       3.45850897      -0.42547442
H        4.14150100       5.37839747      -1.08779483
H        0.82426219       5.70191362      -3.06562022
H        1.86998177       9.55227393      -2.04354534
H        4.11719326       4.09785860      -3.87404394
C        3.91589767       1.71007263      -4.90181126
C        4.51829689       1.34238114      -5.87974487
Br       5.49232548       0.74785510      -7.46098080
C       -6.28334278      -0.76517919       1.85331318
O       -5.31676231      -1.82014583       1.80281790
C       -4.43017791      -1.79392073       0.76095174
O       -4.42131960      -0.95856059      -0.13124257
C       -3.47849470      -2.99083535       0.89649013
O       -2.33990953      -3.17087901       0.06470345
C       -2.51221850      -2.88490530      -1.26251029
C       -1.79867999      -1.79867999      -1.79867999
C       -1.86040895      -1.49743849      -3.16450900
C       -2.62301324      -2.29534420      -4.01728559
C       -2.66982926      -2.03914392      -5.45544945
C       -3.55421602      -1.23780004      -6.05278308
N       -4.52821911      -0.47311694      -5.47909447
C       -5.24590312       0.18303116      -6.46474708
O       -6.18656491       0.93615694      -6.28672137
N       -4.71087266      -0.17201241      -7.67650551
C       -3.66851672      -1.04333257      -7.53113454
O       -2.99686146      -1.56653700      -8.39762172
C       -3.32148258      -3.38883363      -3.49625717
C       -3.25376495      -3.69474092      -2.13134574
H       -7.26545739      -1.18134021       1.61229811
H       -6.06177129       0.06736460       1.18014902
H       -6.30963563      -0.38301163       2.87763398
H       -4.08908542      -3.89834172       0.87232631
H       -3.07267038      -2.92912450       1.91403869
H       -1.29647618      -0.65594973      -3.56243774
H       -1.95234881      -2.59658480      -6.05875968
H       -4.71925043      -0.38114756      -4.49139804
H       -5.06059324       0.15546239      -8.56067019
H       -3.89628444      -4.02629695      -4.16651441
C       -3.90821067      -4.90710923      -1.71246166
C       -4.45630895      -5.92246770      -1.36164625
Br      -5.34253753      -7.56421646      -0.79440740
C       -6.03073095       1.42369229      -2.25921445
O       -4.99372163       2.38782534      -2.04745673
C       -4.20128268       2.20839029      -0.94652607
O       -4.33050740       1.30930329      -0.12868793
C       -3.15276408       3.32904844      -0.90897260
O       -2.07670317       3.34973954       0.01964238
C       -2.37995945       2.97824000       1.30143464
C       -1.79867999       1.79867999       1.79867999
C       -1.99643780       1.39987559       3.12604305
C       -2.76382169       2.19064890       3.98117245
C       -2.94931521       1.82981960       5.38528782
C       -3.93899452       1.06124631       5.84455832
N       -4.91772523       0.42622870       5.13647660
C       -5.76287403      -0.24165495       6.00639997
O       -6.74042777      -0.89826121       5.69496278
N       -5.30463689      -0.02609741       7.28085110
C       -4.19014788       0.76427737       7.28855857
O       -3.55462583       1.16202680       8.24436755
C       -3.33082858       3.37501624       3.50072856
C       -3.12683920       3.77788930       2.17512311
H       -6.99468948       1.90023700      -2.06042700
H       -5.93021019       0.52652663      -1.64247914
H       -6.00111813       1.12460750      -3.31071235
H       -3.69194531       4.27957153      -0.85641600
H       -2.66981580       3.31198997      -1.89404957
H       -1.53358919       0.48649059       3.49478387
H       -2.24379768       2.27794092       6.08595469
H       -5.03260929       0.42635211       4.13283462
H       -5.75057966      -0.39017460       8.10539597
H       -3.90875289       4.00476747       4.17557543
C       -3.64947582       5.06889793       1.80940782
C       -4.08718399       6.15011766       1.50312126
Br      -4.79492108       7.89835851       1.00788180
C       -1.29932626      -0.02834504       6.46619001
O       -0.08711911       0.46183126       5.88304061
C        0.40983622      -0.23670607       4.81660460
O       -0.08807003      -1.25025884       4.34893396
C        1.69307504       0.45343380       4.33319867
O        2.37439526       0.07326117       3.14495100
C        2.47544254      -1.27163633       2.91255521
C        1.79867999      -1.79867999       1.79867999
C        1.92275902      -3.14903668       1.45056074
C        2.74550116      -3.98688991       2.20325196
C        2.93669936      -5.38922497       1.83849830
C        2.17540058      -6.39493957       2.27445900
N        1.07018810      -6.33721348       3.07302895
C        0.59979380      -7.61769069       3.31013456
O       -0.36638392      -7.91285195       3.99066131
N        1.42034870      -8.49305723       2.64598465
C        2.42043949      -7.84084801       1.98169632
O        3.32242992      -8.31683109       1.32175916
C        3.43705343      -3.46757797       3.30194197
C        3.31894049      -2.11517226       3.64573885
H       -1.06640779      -0.45527499       7.44563229
H       -1.81265973      -0.77391066       5.85300674
H       -1.97108280       0.82275307       6.60884915
H        2.39920228       0.45297759       5.16887616
H        1.41869453       1.50360046       4.17266212
H        1.39571776      -3.53781070       0.58133520
H        3.80055769      -5.60012204       1.20701356
H        0.64004813      -5.50366225       3.44808565
H        1.30718330      -9.49208822       2.66652952
H        4.09889363      -4.11623643       3.87396573
C        4.16163079      -1.64957483       4.71657595
C        4.86738391      -1.25963698       5.61340202
Br       6.00852702      -0.62914045       7.06349392
C       -0.00445707       0.01189536      -1.78238275
H       -0.66409135       0.67374010      -2.43557963
H        0.65740317      -0.63156657      -2.45157240
C       -0.90989263      -0.90692880      -0.91072765
C        0.90977584       0.90977584      -0.90977584
C       -0.00465871       1.77757030       0.00794375
H       -0.66225468       2.44313916      -0.64384735
H        0.64322798       2.43503045       0.67728295
C       -1.78241447       0.00034974      -0.00472694
H       -2.45427497      -0.65498947       0.64260836
H       -2.43311707       0.67328779      -0.65473579
C       -0.91132561       0.90220522       0.91563759
C       -0.01476271      -0.02253852       1.78660255
H       -0.67934791      -0.69751639       2.42135241
H        0.63392994       0.61504881       2.47327442
C        0.01484550      -1.77751727      -0.01636693
H        0.67870853      -2.42144646      -0.68295456
H       -0.62264859      -2.45592969       0.64226336
C        1.78714474       0.01002794       0.00389507
H        2.44202412       0.67113390       0.66197326
H        2.45385902      -0.65136977      -0.64189061
C        0.91606151      -0.90478549       0.90901405
