165
Properties=species:S:1:pos:R:3 pbc="F F F"
C        0.00000000       0.00000000       0.00000000
C        0.88137469       0.88137469      -0.88137469
C        2.02988376       0.35496208      -1.46688167
C        2.83550372       1.16762319      -2.27385735
C        2.48944824       2.50364577      -2.51089964
C        1.33523279       3.01653188      -1.90999583
C        0.53287289       2.21021666      -1.09602785
N        3.32838684       3.25840486      -3.35274262
C        3.08230870       4.51848314      -3.86470361
O        2.09180949       5.20875487      -3.65700997
C        4.13662349       4.99012075      -4.77857493
C        4.03086876       6.09808866      -5.65078103
C        5.22555110       6.17464093      -6.34513543
C        5.62140773       7.08589426      -7.40605883
O        6.51769127       6.81102499      -8.19418394
N        4.89460183       8.26485521      -7.41972656
C        4.98965325       9.33534803      -8.33280354
C        5.82407962       9.34118323      -9.45246442
C        5.86086219      10.45041912     -10.30578352
C        5.05941070      11.55746832     -10.04264053
C        4.21588194      11.56433716      -8.93630282
C        4.18103441      10.45464778      -8.08630344
N        5.98798375       5.15190010      -5.82460492
C        7.38387811       4.85398933      -6.05991216
N        5.33374678       4.39347943      -4.90672784
H        2.30457281      -0.68410522      -1.30643579
H        3.72304115       0.73431938      -2.72779505
H        1.03015025       4.04956689      -2.04415823
H       -0.35809070       2.63488877      -0.64074613
H        4.18577923       2.83396148      -3.69627638
H        3.15230416       6.71783121      -5.76922549
H        4.24059195       8.40036423      -6.66183136
H        6.46062637       8.49711534      -9.69819340
H        6.51980323      10.43418522     -11.17017322
H        3.58474869      12.42351977      -8.72493255
H        3.51405360      10.48358880      -7.22799138
H        7.47467969       3.79187823      -6.30045032
H        7.93302949       5.08272225      -5.14197005
H        7.79201650       5.44698546      -6.87489394
C        5.10337254      12.69989986     -10.91815039
C        5.14019058      13.65668628     -11.65138990
Br       5.19972224      15.20372900     -12.83697617
C       -0.88137469      -0.88137469      -0.88137469
C       -0.69129065      -0.89973895      -2.26069791
C       -1.50280508      -1.70921203      -3.06496715
C       -2.49638699      -2.51383949      -2.49376717
C       -2.67638110      -2.47822115      -1.10715825
C       -1.87357649      -1.66406476      -0.30147615
N       -3.25980409      -3.32368509      -3.35604514
C       -4.15090686      -4.31745334      -2.99713526
O       -4.44610635      -4.65449180      -1.85697617
C       -4.72490256      -5.02782034      -4.15259626
C       -5.43851876      -6.24718216      -4.09403754
C       -5.77249245      -6.57686664      -5.39596837
C       -6.45027584      -7.75723837      -5.90584661
O       -6.33512404      -8.11683283      -7.07094333
N       -7.22015910      -8.40503185      -4.95399266
C       -7.96524754      -9.59352020      -5.09903709
C       -7.98847940     -10.36948958      -6.25975828
C       -8.76184201     -11.53488709      -6.32033573
C       -9.51293476     -11.92953483      -5.21704996
C       -9.49403873     -11.17258221      -4.04990098
C       -8.72012414     -10.00945070      -3.99241079
N       -5.28869333      -5.52832560      -6.14746984
C       -5.48715276      -5.25629682      -7.55433002
N       -4.61161180      -4.60076960      -5.42157266
H        0.08567991      -0.29371997      -2.71886333
H       -1.33198558      -1.71473908      -4.13843092
H       -3.44350548      -3.06666225      -0.61370764
H       -2.03579689      -1.65500199       0.77325468
H       -3.11468807      -3.24247041      -4.35885860
H       -5.62701071      -6.81772318      -3.19462696
H       -7.29472017      -7.95582172      -4.05224565
H       -7.41347940     -10.10190357      -7.14055214
H       -8.76691225     -12.12224110      -7.23500832
H      -10.07541769     -11.47493598      -3.18284733
H       -8.72170711      -9.43439953      -3.06952715
H       -4.51456138      -5.04629062      -8.00615625
H       -6.13948017      -4.38206891      -7.63617272
H       -5.95193154      -6.09527632      -8.06668804
C      -10.31261280     -13.12523082      -5.28357917
C      -10.98234316     -14.12662621      -5.33929739
Br     -12.06524051     -15.74579786      -5.42938904
C       -0.88137469       0.88137469       0.88137469
C       -2.06892798       1.40546100       0.37733853
C       -2.87354738       2.21401068       1.18942621
C       -2.50291545       2.48971431       2.51136390
C       -1.30399601       1.95913456       2.99862993
C       -0.49322514       1.15839792       2.18749434
N       -3.36962744       3.28786684       3.28204005
C       -3.29671775       3.52741564       4.64136206
O       -2.44724894       3.09786635       5.41245904
C       -4.41045914       4.34780266       5.14705737
C       -4.74794413       4.52274609       6.50904823
C       -5.86570921       5.33809943       6.54151882
C       -6.65642353       5.77787018       7.67906711
O       -7.81620152       6.15149081       7.55520787
N       -5.96781696       5.73144634       8.87992030
C       -6.44561296       6.04242585      10.16976601
C       -7.76573336       6.39803897      10.45395494
C       -8.15479049       6.69719316      11.76508118
C       -7.22346859       6.63834997      12.79770098
C       -5.90622568       6.27721442      12.53308182
C       -5.52096898       5.97844551      11.22257114
N       -6.10481014       5.64082474       5.21885390
C       -7.05107389       6.58344818       4.66325753
N       -5.26387046       5.01665064       4.35343295
H       -2.37959156       1.18842343      -0.64111159
H       -3.80046466       2.60599973       0.77869119
H       -0.95899689       2.15608995       4.00878853
H        0.43382690       0.75988715       2.59148396
H       -4.18824786       3.69239296       2.83537627
H       -4.24260707       4.05406439       7.34268939
H       -4.98991427       5.48306857       8.82980469
H       -8.52520605       6.45039251       9.68033655
H       -9.18718310       6.97410428      11.96287429
H       -5.17318825       6.22615013      13.33386262
H       -4.48596269       5.69907621      11.04059488
H       -7.61322221       6.08250838       3.87127765
H       -6.48310836       7.42284843       4.25176501
H       -7.74006906       6.95661272       5.41721412
C       -7.62428257       6.95249390      14.14464632
C       -7.95996428       7.21558944      15.27271304
Br      -8.50273322       7.64099267      17.09670152
C        0.88137469      -0.88137469       0.88137469
C        0.32781581      -1.96410422       1.55980748
C        1.14021867      -2.76909842       2.36766717
C        2.51001856      -2.50489046       2.48908463
C        3.04732343      -1.40984537       1.80459170
C        2.23715866      -0.59815741       1.00380133
N        3.27490390      -3.36836652       3.29626391
C        4.65211484      -3.40611851       3.40726211
O        5.44985413      -2.67602943       2.83169077
C        5.13471749      -4.48700323       4.28359845
C        6.47227422      -4.93757692       4.36988731
C        6.48485875      -5.97725578       5.28321293
C        7.58559706      -6.83226315       5.69550060
O        7.39689523      -7.93734341       6.18866156
N        8.83222870      -6.26943354       5.47752136
C       10.09904433      -6.84020480       5.71855569
C       10.29907300      -8.14519132       6.17346294
C       11.59364611      -8.63107396       6.39234476
C       12.69361723      -7.81247124       6.15343108
C       12.51220554      -6.51271027       5.69160611
C       11.21794587      -6.03062106       5.47341869
N        5.18168157      -6.06014877       5.72265843
C        4.63857383      -6.86189378       6.79731200
N        4.33737469      -5.19779652       5.09878284
H       -0.73016272      -2.19296853       1.46409758
H        0.68933127      -3.61402816       2.88179615
H        4.09816237      -1.14790446       1.87780854
H        2.68074122       0.24698327       0.48378625
H        2.79912221      -4.10135841       3.81553647
H        7.29800323      -4.55814865       3.78320899
H        8.84453630      -5.31688801       5.14136322
H        9.47036706      -8.81896237       6.36660568
H       11.72571609      -9.64937772       6.74906787
H       13.36564260      -5.86765470       5.49990370
H       11.10155017      -5.01146740       5.11261621
H        3.75564693      -7.38688578       6.42447554
H        4.36146929      -6.18532457       7.61092794
H        5.36151649      -7.58491226       7.16746715
C       14.02411549      -8.31214715       6.38516015
C       15.13840778      -8.73062572       6.57923326
Br      16.94012418      -9.40727018       6.89303305
