178
Properties=species:S:1:pos:R:3 pbc="F F F"
C        1.79127871       1.79127871      -1.79127871
C        2.93978778       1.26486611      -2.37678569
C        3.74540775       2.07752722      -3.18376137
C        3.39935227       3.41354980      -3.42080366
C        2.24513681       3.92643591      -2.81989986
C        1.44277691       3.12012069      -2.00593188
N        4.23829087       4.16830888      -4.26264665
C        3.99221272       5.42838716      -4.77460764
O        3.00171351       6.11865889      -4.56691399
C        5.04652751       5.90002478      -5.68847895
C        4.94077279       7.00799269      -6.56068506
C        6.13545513       7.08454496      -7.25503945
C        6.53131175       7.99579828      -8.31596285
O        7.42759529       7.72092901      -9.10408797
N        5.80450585       9.17475923      -8.32963059
C        5.89955727      10.24525206      -9.24270757
C        6.73398365      10.25108725     -10.36236844
C        6.77076622      11.36032314     -11.21568754
C        5.96931473      12.46737234     -10.95254455
Br       6.02699482      13.96629853     -12.10125640
C        5.12578596      12.47424119      -9.84620685
C        5.09093844      11.36455180      -8.99620746
N        6.89788778       6.06180412      -6.73450895
C        8.29378213       5.76389336      -6.96981619
N        6.24365081       5.30338345      -5.81663186
H        3.21447684       0.22579881      -2.21633982
H        4.63294517       1.64422340      -3.63769908
H        1.94005428       4.95947091      -2.95406225
H        0.55181333       3.54479279      -1.55065016
H        5.09568325       3.74386551      -4.60618040
H        4.06220819       7.62773523      -6.67912951
H        5.15049597       9.31026825      -7.57173539
H        7.37053039       9.40701937     -10.60809743
H        7.42970726      11.34408925     -12.08007724
H        4.49465271      13.33342379      -9.63483658
H        4.42395763      11.39349282      -8.13789540
H        8.38458372       4.70178225      -7.21035435
H        8.84293352       5.99262627      -6.05187407
H        8.70192052       6.35688949      -7.78479796
C       -1.79127871      -1.79127871      -1.79127871
C       -2.82048247      -1.22327686      -2.53768025
C       -3.62669784      -2.03600924      -3.34398926
C       -3.39881518      -3.41561085      -3.41927969
C       -2.36400358      -3.96916866      -2.65830034
C       -1.56231614      -3.16170234      -1.84481100
N       -4.22886122      -4.17147571      -4.26890947
C       -4.06669494      -5.49474229      -4.63377030
O       -3.17569508      -6.24906270      -4.26252862
C       -5.07436099      -5.95758820      -5.60308206
C       -5.00214654      -7.15407994      -6.35322405
C       -6.12874031      -7.19011691      -7.15618232
C       -6.51565117      -8.16454778      -8.16287394
O       -7.30200828      -7.88984423      -9.06075976
N       -5.91532192      -9.40106081      -7.99251294
C       -6.03435260     -10.54598237      -8.80718193
C       -6.75742284     -10.58899139     -10.00102511
C       -6.82826033     -11.77157201     -10.74694456
C       -6.17233324     -12.91543823     -10.30146015
Br      -6.27636321     -14.51228610     -11.30590043
C       -5.44031251     -12.88722104      -9.11870045
C       -5.37103685     -11.70435170      -8.37630915
N       -6.82741049      -6.05309613      -6.81369422
C       -8.15754112      -5.65256376      -7.21738680
N       -6.18697609      -5.26866979      -5.90802024
H       -3.00099186      -0.15225063      -2.50337297
H       -4.41918734      -1.57097178      -3.92470853
H       -2.15521461      -5.03434969      -2.66402314
H       -0.76567396      -3.61837135      -1.26321097
H       -5.00265193      -3.70670285      -4.73637439
H       -4.18450534      -7.86156506      -6.32300253
H       -5.35183053      -9.51834768      -7.16232140
H       -7.27858366      -9.71910632     -10.38795721
H       -7.39896724     -11.78286603     -11.67204048
H       -4.92287184     -13.77509269      -8.76494854
H       -4.79310481     -11.70701172      -7.45522932
H       -8.11634341      -4.61686073      -7.56351618
H       -8.81006583      -5.73409133      -6.34327670
H       -8.54684673      -6.28546000      -8.01130124
C       -1.79127871       1.79127871       1.79127871
C       -1.71067889       3.17793390       1.69282679
C       -2.52061335       3.98209734       2.50398564
C       -3.42383421       3.40484604       3.40502549
C       -3.48703468       2.01041564       3.49402226
C       -2.67310564       1.20398856       2.69173527
N       -4.22730644       4.26980643       4.17213352
C       -5.29877365       3.92297524       4.97345863
O       -5.72535023       2.79161426       5.17032191
C       -5.97222692       5.08509675       5.57770757
C       -7.23773457       5.06349726       6.20821869
C       -7.50693744       6.36109050       6.60701159
C       -8.69569996       6.90518814       7.24218479
O       -8.97328879       8.09658604       7.18273745
N       -9.45161703       5.95239890       7.90487974
C      -10.67575359       6.12952437       8.58223893
C      -11.37747655       7.33568295       8.63427984
C      -12.58578385       7.42538791       9.33560515
C      -13.09782651       6.30609336       9.98531175
Br     -14.72458608       6.43206001      10.93790366
C      -12.41573162       5.09453108       9.93597130
C      -11.20945106       5.00808608       9.23416057
N       -6.38355108       7.06975990       6.24088987
C       -6.03796376       8.44018620       6.54934172
N       -5.46009457       6.32736340       5.57620815
H       -1.02674550       3.64232987       0.98754009
H       -2.44763169       5.06211315       2.40512282
H       -4.15501253       1.51032536       4.18824955
H       -2.74207213       0.12301267       2.78217147
H       -4.07407604       5.27207648       4.09957664
H       -7.87467289       4.19411837       6.30028167
H       -9.06562075       5.01980915       7.94706970
H      -11.01761332       8.23088415       8.13714971
H      -13.11384836       8.37508453       9.36494086
H      -12.80978369       4.21493247      10.43819692
H      -10.69459480       4.05061738       9.21013368
H       -5.73573623       8.93690555       5.62407854
H       -5.20578213       8.42261385       7.25903789
H       -6.87240317       8.97729976       6.99390505
C        1.79127871      -1.79127871       1.79127871
C        1.59573821      -3.16974033       1.81596105
C        2.40622153      -3.97384675       2.62662805
C        3.42372535      -3.40642417       3.40355620
C        3.60178845      -2.01951033       3.37017380
C        2.78825549      -1.21213417       2.56843982
N        4.21939465      -4.27379493       4.17605682
C        5.37787131      -3.95710475       4.86023146
O        5.90564348      -2.85367009       4.92797283
C        6.00773993      -5.12138838       5.50590293
C        7.31952353      -5.15728337       6.03264362
C        7.52007933      -6.43814683       6.51681338
C        8.71227137      -7.02925284       7.10154867
O        8.89094929      -8.24074679       7.12091619
N        9.59248475      -6.09482059       7.62159034
C       10.85173021      -6.32105306       8.21473362
C       11.45998094      -7.57415174       8.31330666
C       12.71226890      -7.71035397       8.92415404
C       13.36198389      -6.59106012       9.43618761
Br      15.04825678      -6.77894416      10.26734880
C       12.77387736      -5.33402988       9.33832676
C       11.52331016      -5.20127379       8.72711375
N        6.31853437      -7.07631254       6.29935394
C        5.89510587      -8.38497341       6.74741240
N        5.40277506      -6.31272690       5.64816416
H        0.82122900      -3.62829441       1.20709205
H        2.24192349      -5.04834030       2.62460387
H        4.36227878      -1.52501217       3.96629649
H        2.94793227      -0.13700169       2.56232232
H        3.98358812      -5.26228789       4.19985315
H        8.02724245      -4.33986141       6.00196908
H        9.28464954      -5.13269124       7.61515883
H       10.99157100      -8.47177672       7.92229947
H       13.16591955      -8.69585971       8.99209449
H       13.27547393      -4.45437818       9.73306097
H       11.08382759      -4.20874363       8.66277463
H        5.47886944      -8.92465095       5.89319993
H        5.12921530      -8.24287219       7.51534638
H        6.71984561      -8.95417112       7.16959124
C       -0.00445707       0.01189536      -1.78238275
H       -0.66409135       0.67374010      -2.43557963
H        0.65740317      -0.63156657      -2.45157240
C       -0.90989263      -0.90692880      -0.91072765
C        0.90977584       0.90977584      -0.90977584
C       -0.00465871       1.77757030       0.00794375
H       -0.66225468       2.44313916      -0.64384735
H        0.64322798       2.43503045       0.67728295
C       -1.78241447       0.00034974      -0.00472694
H       -2.45427497      -0.65498947       0.64260836
H       -2.43311707       0.67328779      -0.65473579
C       -0.91132561       0.90220522       0.91563759
C       -0.01476271      -0.02253852       1.78660255
H       -0.67934791      -0.69751639       2.42135241
H        0.63392994       0.61504881       2.47327442
C        0.01484550      -1.77751727      -0.01636693
H        0.67870853      -2.42144646      -0.68295456
H       -0.62264859      -2.45592969       0.64226336
C        1.78714474       0.01002794       0.00389507
H        2.44202412       0.67113390       0.66197326
H        2.45385902      -0.65136977      -0.64189061
C        0.91606151      -0.90478549       0.90901405
