129
Properties=species:S:1:pos:R:3 pbc="F F F"
C        0.00000000       0.00000000       0.00000000
C        0.88175623       0.88175623      -0.88175623
C        1.39403902       2.07501574      -0.37483396
C        2.20214764       2.88038888      -1.18135899
C        2.49626783       2.49093598      -2.49306168
C        1.97575905       1.29196971      -2.99318426
C        1.16818327       0.48636512      -2.18720969
C        3.35096321       3.32232397      -3.34225791
C        4.69025552       3.27798763      -3.36238000
S        5.71769971       2.28968343      -2.41507337
C        7.18049702       2.90521510      -3.18614558
S        8.65899248       2.19217432      -2.85418703
N        6.85154100       3.91085459      -4.08929328
C        7.80535425       4.68573049      -4.82409005
C        7.59850186       4.97028231      -6.18383464
C        8.51757586       5.73690461      -6.90849487
C        9.64619993       6.24474454      -6.27380782
C        9.86163798       5.99430884      -4.92240847
C        8.94492977       5.21949831      -4.20262746
C        5.48917101       4.14830781      -4.26570057
O        4.95766739       4.96630850      -5.00945426
H        1.17288076       2.38523125       0.64303441
H        2.59940871       3.80865311      -0.77697467
H        2.19699444       0.97444868      -4.00973366
H        0.77160531      -0.44388479      -2.58528927
H        2.81423004       4.00565702      -3.99842010
H        6.72985783       4.58107983      -6.71153755
H        8.33858287       5.93047761      -7.96314765
H       10.73154861       6.40318567      -4.41437264
H        9.12373567       5.08544913      -3.13845850
C       10.58972521       7.04086407      -7.01512674
C       11.37992763       7.70761417      -7.63598133
Br      12.65761812       8.78569270      -8.63985070
C       -0.88175623      -0.88175623      -0.88175623
C       -1.64804548      -0.30337209      -1.89247116
C       -2.45313158      -1.11074747      -2.70001646
C       -2.49033435      -2.49473100      -2.49520015
C       -1.71859136      -3.06553551      -1.47678614
C       -0.91335586      -2.25890254      -0.66949968
C       -3.32209547      -3.35037953      -3.34307010
C       -2.94984074      -3.85202624      -4.52875617
S       -1.46514874      -3.61148105      -5.34582673
C       -1.92080987      -4.66589975      -6.68514808
S       -0.78675857      -5.06895203      -7.84964323
N       -3.22852943      -5.10858708      -6.51457236
C       -3.94392436      -5.91046018      -7.46079025
C       -4.73216476      -6.99024653      -7.03020751
C       -5.44535428      -7.77283006      -7.94479100
C       -5.39297268      -7.47040575      -9.30137385
C       -4.63623074      -6.39251838      -9.74960618
C       -3.91678639      -5.61723939      -8.83302976
C       -3.84989397      -4.72689284      -5.32639258
O       -4.98371321      -5.00212656      -4.94759038
H       -1.62459305       0.77011861      -2.06060316
H       -3.04602426      -0.65132438      -3.48768784
H       -1.73497840      -4.13971670      -1.30648167
H       -0.31627809      -2.71339049       0.11665880
H       -4.30504478      -3.57899604      -2.93426634
H       -4.78780111      -7.25791349      -5.97676060
H       -6.03699474      -8.61067374      -7.58453965
H       -4.60493120      -6.13802796     -10.80614777
H       -3.37545601      -4.75567272      -9.21651458
C       -6.13241085      -8.26914230     -10.24416286
C       -6.75169032      -8.93808415     -11.03374866
Br      -7.75301285     -10.01970656     -12.31044212
C       -0.88175623       0.88175623       0.88175623
C       -0.91493077       2.25916129       0.66979667
C       -1.72318257       3.06512317       1.47558977
C       -2.49650943       2.49211149       2.49164458
C       -2.45496696       1.10846497       2.69748108
C       -1.64743235       0.30232849       1.89199724
C       -3.35493283       3.32664547       3.33396679
C       -4.60407138       3.70134125       3.02521052
S       -5.48357424       3.33588620       1.60299608
C       -6.92758266       4.18085490       2.16342014
S       -8.35081514       4.06624501       1.28829368
N       -6.67293585       4.79174533       3.38700769
C       -7.59989971       5.63214044       4.08313464
C       -7.76959062       5.51094447       5.47208371
C       -8.66333733       6.33521666       6.16442135
C       -9.38397081       7.30515197       5.47562950
C       -9.21681660       7.45848365       4.10305504
C       -8.32869366       6.62627708       3.41208479
C       -5.41903699       4.54153688       3.94260552
O       -4.97189372       4.95350227       5.00803416
H       -0.31947564       2.71339824      -0.11779628
H       -1.74468505       4.13859314       1.30175830
H       -3.05178855       0.64783811       3.48155012
H       -1.62504497      -0.77127927       2.05924408
H       -2.90700436       3.63353975       4.27776305
H       -7.22687288       4.75678298       6.03881935
H       -8.78422943       6.21042475       7.23755395
H       -9.76226712       8.22654576       3.56029405
H       -8.19071653       6.80801222       2.34891456
C      -10.29854324       8.16034214       6.18683064
C      -11.06449764       8.87656390       6.78246159
Br     -12.30298114      10.03463392       7.74554646
C        0.88175623      -0.88175623       0.88175623
C        1.13142469      -0.51045332       2.20201072
C        1.93668018      -1.31845176       3.00876357
C        2.49062440      -2.49597606       2.49366503
C        2.23533543      -2.85913376       1.16644382
C        1.43013230      -2.05193391       0.35969186
C        3.32651206      -3.35488498       3.33414805
C        2.86599673      -4.30446416       4.16016227
S        1.23496142      -4.73005014       4.45744496
C        1.67553773      -6.02901795       5.56730202
S        0.49533877      -7.07006300       6.13995206
N        3.05485649      -6.04997799       5.74685439
C        3.74258536      -6.92218611       6.65040331
C        4.93077214      -7.56150424       6.26034242
C        5.61776723      -8.40601473       7.13919339
C        5.13256054      -8.60474253       8.42744921
C        3.96924938      -7.96535718       8.84374874
C        3.27954761      -7.12834545       7.95916248
C        3.78279885      -5.14690569       4.97347486
O        4.99888251      -4.98816994       4.94637771
H        0.70437296       0.40108750       2.61179214
H        2.12441188      -1.02227265       4.03835196
H        2.65674492      -3.77230920       0.75212265
H        1.23655373      -2.34518049      -0.66872444
H        4.39724720      -3.18091801       3.24014196
H        5.33227157      -7.43327937       5.25692427
H        6.52804267      -8.89814725       6.80601822
H        3.59354641      -8.10058142       9.85497910
H        2.40114990      -6.61013783       8.33635558
C        5.84189549      -9.46700208       9.33681845
C        6.43596350     -10.18914445      10.09841519
Br       7.39652124     -11.35678758      11.32985270
