142
Properties=species:S:1:pos:R:3 pbc="F F F"
C        1.79166025       1.79166025      -1.79166025
C        2.30394305       2.98491976      -1.28473799
C        3.11205166       3.79029291      -2.09126302
C        3.40617186       3.40084001      -3.40296570
C        2.88566307       2.20187373      -3.90308828
C        2.07808729       1.39626914      -3.09711372
C        4.26086724       4.23222799      -4.25216193
C        5.60015954       4.18789166      -4.27228403
S        6.62760373       3.19958745      -3.32497740
C        8.09040105       3.81511912      -4.09604960
S        9.56889651       3.10207834      -3.76409106
N        7.76144503       4.82075861      -4.99919730
C        8.71525828       5.59563451      -5.73399407
C        8.50840588       5.88018633      -7.09373866
C        9.42747989       6.64680864      -7.81839889
C       10.55610395       7.15464856      -7.18371184
Br      11.79392093       8.19908297      -8.15625297
C       10.77154201       6.90421287      -5.83231250
C        9.85483379       6.12940233      -5.11253148
C        6.39907503       5.05821183      -5.17560460
O        5.86757142       5.87621253      -5.91935828
H        2.08278478       3.29513528      -0.26686962
H        3.50931273       4.71855713      -1.68687870
H        3.10689846       1.88435270      -4.91963768
H        1.68150933       0.46601923      -3.49519329
H        3.72413407       4.91556104      -4.90832412
H        7.63976185       5.49098386      -7.62144157
H        9.24848689       6.84038164      -8.87305168
H       11.64145264       7.31308970      -5.32427667
H       10.03363970       5.99535316      -4.04836253
C       -1.79166025      -1.79166025      -1.79166025
C       -2.78405252      -2.57930490      -1.21024337
C       -3.59162850      -3.38439373      -2.01758536
C       -3.40516305      -3.40024555      -3.40456897
C       -2.40504321      -2.60714516      -3.97843671
C       -1.59773813      -1.80190052      -3.17183150
C       -4.25335476      -4.23190529      -4.25999711
C       -5.45063570      -3.86910801      -4.74059152
S       -6.28419823      -2.39901899      -4.46895138
C       -7.63149735      -2.85866195      -5.51141047
S       -8.81646722      -1.73524116      -5.88335752
N       -7.44943281      -4.15788774      -5.97408039
C       -8.39678411      -4.87526051      -6.77284224
C       -7.97038656      -5.64302368      -7.86892063
C       -8.88587661      -6.35802012      -8.64879069
C      -10.23880375      -6.32814375      -8.32751686
Br     -11.47666362      -7.30080055      -9.37179271
C      -10.68245107      -5.59208774      -7.23352857
C       -9.76515163      -4.87071256      -6.46090342
C       -6.24794841      -4.76810687      -5.61683618
O       -5.85775129      -5.89287929      -5.91251165
H       -2.93787647      -2.57253835      -0.13437485
H       -4.36496028      -3.99404626      -1.55574203
H       -2.24915133      -2.60680881      -5.05492870
H       -0.82590802      -1.18815041      -3.62866342
H       -3.83455113      -5.20605265      -4.50741545
H       -6.92002399      -5.68074084      -8.15142245
H       -8.52914544      -6.93341981      -9.49935496
H      -11.73576049      -5.57856832      -6.96449019
H      -10.14411487      -4.34624773      -5.58699278
C       -1.79166025       1.79166025       1.79166025
C       -2.23764444       1.31324435       3.02271201
C       -3.04278553       2.12104532       3.82977673
C       -3.40031964       3.40548198       3.40417595
C       -2.94882411       3.87593098       2.16586999
C       -2.14364878       3.06892430       1.35889707
C       -4.23428338       4.26359217       4.24738161
C       -3.77743613       5.05599898       5.22690012
S       -2.15802737       5.24675763       5.74738358
C       -2.58706717       6.46231374       6.95218886
S       -1.37954987       7.28525798       7.77025805
N       -3.96763536       6.63041866       6.98334692
C       -4.66158767       7.47694763       7.90635156
C       -5.71807951       8.29349310       7.47075827
C       -6.41130489       9.11526128       8.36612124
C       -6.06684747       9.11395392       9.71366297
Br      -7.00754803      10.21424597      10.92746289
C       -5.03808250       8.29752357      10.17246130
C       -4.34068510       7.48344566       9.27263685
C       -4.68973531       5.91056805       6.03258810
O       -5.90359248       5.90387033       5.85567941
H       -1.96394785       0.31796584       3.36287598
H       -3.38441744       1.74057983       4.78975129
H       -3.21622799       4.87262935       1.82203150
H       -1.79670471       3.44566283       0.40035432
H       -5.29826115       4.23149794       4.01826014
H       -6.00677771       8.32357448       6.42183509
H       -7.21628269       9.74683692       7.99880060
H       -4.77503098       8.27662659      11.22716144
H       -3.57529458       6.82525209       9.67680870
C        1.79166025      -1.79166025       1.79166025
C        1.46569541      -1.97307427       3.13483112
C        2.27170638      -2.78132180       3.94057940
C        3.40196822      -3.40641757       3.40159178
C        3.72160799      -3.21664290       2.05237419
C        2.91598661      -2.40906346       1.24642008
C        4.24648483      -4.26397221       4.23480012
C        4.02602020      -5.56490589       4.46940913
S        2.73019674      -6.52537609       3.89659576
C        3.34959425      -7.98901533       4.66296019
S        2.62611034      -9.46523640       4.34371916
N        4.48631420      -7.68860706       5.40647968
C        5.19181220      -8.62731064       6.22576402
C        6.59583670      -8.66426592       6.22222826
C        7.29582784      -9.56882846       7.02803112
C        6.59711440     -10.43467973       7.86267023
Br       7.53906292     -11.65017651       8.96001745
C        5.20679594     -10.40186504       7.89940639
C        4.50937742      -9.50201187       7.08537831
C        4.94039484      -6.37341591       5.31908072
O        5.91922823      -5.87693972       5.86697428
H        0.58908311      -1.49343920       3.56226736
H        2.00868547      -2.91913531       4.98692778
H        4.59540609      -3.69733325       1.61814951
H        3.17240531      -2.27092763       0.19938891
H        5.11368114      -3.76728224       4.66705586
H        7.17169435      -8.00580036       5.57469258
H        8.38233123      -9.58430494       6.99528404
H        4.65377426     -11.06228575       8.56275899
H        3.42622441      -9.47411439       7.17701659
C       -0.00445707       0.01189536      -1.78238275
H       -0.66409135       0.67374010      -2.43557963
H        0.65740317      -0.63156657      -2.45157240
C       -0.90989263      -0.90692880      -0.91072765
C        0.90977584       0.90977584      -0.90977584
C       -0.00465871       1.77757030       0.00794375
H       -0.66225468       2.44313916      -0.64384735
H        0.64322798       2.43503045       0.67728295
C       -1.78241447       0.00034974      -0.00472694
H       -2.45427497      -0.65498947       0.64260836
H       -2.43311707       0.67328779      -0.65473579
C       -0.91132561       0.90220522       0.91563759
C       -0.01476271      -0.02253852       1.78660255
H       -0.67934791      -0.69751639       2.42135241
H        0.63392994       0.61504881       2.47327442
C        0.01484550      -1.77751727      -0.01636693
H        0.67870853      -2.42144646      -0.68295456
H       -0.62264859      -2.45592969       0.64226336
C        1.78714474       0.01002794       0.00389507
H        2.44202412       0.67113390       0.66197326
H        2.45385902      -0.65136977      -0.64189061
C        0.91606151      -0.90478549       0.90901405
