198
Properties=species:S:1:pos:R:3 pbc="F F F"
C        4.55347394       3.93299347      -5.39311630
O        4.34508583       4.23381827      -4.01825102
C        3.48124681       3.41305780      -3.33741346
C        2.40292977       2.74789813      -3.93541702
C        1.54955772       1.94259489      -3.16992404
O        0.49420147       1.24219192      -3.69451413
C       -0.09714067       1.76806378      -4.87708668
C        1.79757805       1.79757805      -1.79757805
C        2.86012743       2.47104271      -1.18977262
C        3.70121729       3.28714100      -1.95437253
C        4.84150677       3.95048863      -1.30921191
C        6.01261216       3.34398553      -1.10062035
N        6.33852833       2.05169810      -1.38623996
C        7.63214829       1.78771850      -0.97130577
O        8.15932127       0.68827396      -1.02052164
N        8.15940432       2.96065016      -0.47206372
C        9.46892071       3.06943162       0.12501203
C       10.57999298       3.02711046      -0.89939921
C       11.00462207       4.19547253      -1.54820340
C       12.02749356       4.14392383      -2.50000138
C       12.62269302       2.92317615      -2.81417437
C       12.20492129       1.75264578      -2.18736160
C       11.18637223       1.80578557      -1.23436715
C        7.22285987       3.96471615      -0.47608924
O        7.30803945       5.09852038      -0.03755867
H        5.40367985       4.52939075      -5.73808594
H        3.68473805       4.21774587      -5.99412059
H        4.80470505       2.87648807      -5.53601564
H        2.22951565       2.85692432      -4.99841300
H       -1.04221353       1.24105169      -5.04016204
H        0.53935401       1.58340417      -5.74796551
H       -0.32269996       2.83480138      -4.77179063
H        3.03450012       2.35859646      -0.12182558
H        4.70173019       4.99466665      -1.04205801
H        5.73220318       1.35615105      -1.79399549
H        9.59226554       2.24247074       0.83472877
H        9.53819424       3.99873522       0.70269897
H       10.54290365       5.15350048      -1.31510213
H       12.35043245       5.05827882      -2.99075479
H       12.65705418       0.79556239      -2.43364028
H       10.85781307       0.88120383      -0.76099592
C       13.67342692       2.86942607      -3.79736774
C       14.55341656       2.82441039      -4.62079219
Br      15.97628538       2.75162383      -5.95219988
C       -4.50395220      -3.96274767      -5.41288383
O       -4.35216227      -4.22264456      -4.02234829
C       -3.48369627      -3.40816272      -3.33985908
C       -2.36363688      -2.80049478      -3.92211325
C       -1.50898982      -1.99817491      -3.15491191
O       -0.41309969      -1.35199826      -3.66580958
C        0.19889943      -1.93792207      -4.80898715
C       -1.79757805      -1.79757805      -1.79757805
C       -2.90250285      -2.41372942      -1.20471049
C       -3.74528509      -3.22721150      -1.97023423
C       -4.92875873      -3.82936733      -1.34308124
C       -6.08450711      -3.17720918      -1.19550176
N       -6.35581011      -1.88540082      -1.53525546
C       -7.65267317      -1.56413916      -1.17436024
O       -8.13957054      -0.45004844      -1.27849789
N       -8.23656776      -2.70082570      -0.65472474
C       -9.56828749      -2.74506366      -0.09998915
C      -10.64237017      -2.70108035      -1.16305213
C      -11.08522582      -3.87633409      -1.78673809
C      -12.07331774      -3.82357088      -2.77453016
C      -12.61511198      -2.59520628      -3.14972527
C      -12.17829572      -1.41831804      -2.54831490
C      -11.19461626      -1.47248465      -1.55942405
C       -7.33569474      -3.73517241      -0.59279811
O       -7.47464212      -4.84965243      -0.11982394
H       -5.36226822      -4.54196678      -5.76692154
H       -3.62598061      -4.29699120      -5.97363269
H       -4.71358063      -2.90400931      -5.59961883
H       -2.15866375      -2.95195116      -4.97423806
H        1.16655425      -1.44874773      -4.95680673
H       -0.40136428      -1.76231808      -5.70704132
H        0.38378875      -3.00732311      -4.66035770
H       -3.10848065      -2.25865369      -0.14778782
H       -4.83418270      -4.86777036      -1.03650179
H       -5.71250449      -1.22502555      -1.94481968
H       -9.68661381      -1.89039389       0.57700019
H       -9.68892649      -3.65099911       0.50569510
H      -10.66496311      -4.84062504      -1.50591811
H      -12.41109964      -4.74304477      -3.24532164
H      -12.58857622      -0.45574664      -2.84193399
H      -10.85028593      -0.54358480      -1.10614208
C      -13.62990856      -2.54039867      -4.16991350
C      -14.47980070      -2.49449729      -5.02432114
Br     -15.85400441      -2.42027865      -6.40582603
C       -4.61487031       5.36508475       3.89962864
O       -4.06620276       4.14557977       4.38537260
C       -3.34462285       3.39979142       3.48730380
C       -3.58282872       3.39671436       2.10670183
C       -2.81756153       2.59099563       1.25351949
O       -2.97813944       2.56043059      -0.10766250
C       -4.27144587       2.88253522      -0.60597130
C       -1.79757805       1.79757805       1.79757805
C       -1.56462586       1.78125559       3.17506131
C       -2.34120595       2.57530851       4.02621635
C       -2.05260514       2.58253173       5.46607044
C       -1.10113563       3.34303734       6.01304507
N       -0.23301022       4.17381666       5.36963951
C        0.63662255       4.74655180       6.28124332
O        1.57533229       5.46504100       5.97840816
N        0.26601694       4.31883112       7.53930402
C        0.98208020       4.64656773       8.74885276
C        0.75725726       6.07561096       9.18814894
C       -0.34103754       6.41684178       9.99041868
C       -0.54420356       7.74289005      10.38432517
C        0.34373765       8.73421578       9.96956540
C        1.43250864       8.41375897       9.16367833
C        1.63667756       7.08894562       8.77425690
C       -0.77117440       3.42171445       7.47077640
O       -1.29624597       2.78234382       8.36552871
H       -4.97483978       5.93388007       4.76243670
H       -5.47229720       5.17798047       3.24632683
H       -3.85514004       5.96955547       3.39251325
H       -4.36433435       4.02372572       1.69679290
H       -4.30142951       2.60043218      -1.66286149
H       -4.45676802       3.95940443      -0.54544876
H       -5.05293395       2.31745480      -0.08649670
H       -0.77732561       1.15237646       3.58522009
H       -2.69119613       1.96000106       6.08725766
H       -0.17797763       4.32987033       4.37450176
H        2.05143665       4.48139876       8.57004540
H        0.68406432       3.96444464       9.55385018
H       -1.04427740       5.65185926      10.31536959
H       -1.39649591       7.99195825      11.01101190
H        2.12390101       9.18213330       8.82802456
H        2.48395182       6.85240246       8.13156217
C        0.13229278      10.10060064      10.37191288
C       -0.04479229      11.24494796      10.70887889
Br      -0.33112387      13.09526078      11.25372444
C        4.96767984      -5.12655155       3.78535232
O        4.02067048      -4.22703051       4.34945413
C        3.32958690      -3.43501512       3.46711604
C        3.84231646      -3.00909088       2.23483757
C        3.08456879      -2.18205825       1.39544961
O        3.51285214      -1.75184298       0.16621241
C        4.91972054      -1.64845488      -0.02016563
C        1.79757805      -1.79757805       1.79757805
C        1.28519780      -2.20332825       3.03241671
C        2.05084899      -3.01647717       3.87540466
C        1.47945142      -3.47288325       5.14887264
C        0.67610370      -4.53496310       5.24615124
N        0.21986920      -5.32394057       4.23265662
C       -0.63383676      -6.29093115       4.73407817
O       -1.25820860      -7.08123075       4.04509472
N       -0.66518097      -6.15117971       6.10611946
C       -1.50331019      -6.93623446       6.98041602
C       -0.99811150      -8.35055936       7.15405479
C       -0.04225495      -8.65748887       8.13306409
C        0.42428948      -9.96731454       8.27981476
C       -0.05516787     -10.97308951       7.44212190
C       -0.99570300     -10.68270432       6.45792734
C       -1.46379736      -9.37546138       6.31486094
C        0.08139706      -5.07202143       6.51024677
O        0.21425189      -4.60280916       7.62705745
H        5.27855027      -5.81861385       4.57399243
H        5.85990867      -4.59427620       3.44241965
H        4.52354835      -5.71695576       2.97670465
H        4.83210465      -3.32350089       1.92924743
H        5.09346603      -1.09150783      -0.94597366
H        5.37213202      -2.63780158      -0.13920991
H        5.39234657      -1.09383738       0.79770810
H        0.28940757      -1.88844673       3.33706786
H        1.78093517      -2.92175356       6.03576612
H        0.41916111      -5.21323630       3.24995231
H       -2.51524050      -6.95713100       6.55811701
H       -1.57652529      -6.45024695       7.96050883
H        0.34365284      -7.87889254       8.78896087
H        1.16093359     -10.19182541       9.04670706
H       -1.36731569     -11.45910953       5.79446301
H       -2.18898249      -9.15734122       5.53165409
C        0.42828350     -12.32136103       7.59057621
C        0.83317403     -13.45053842       7.71490669
Br       1.48784776     -15.27632277       7.91593856
C       -0.00445707       0.01189536      -1.78238275
H       -0.66409135       0.67374010      -2.43557963
H        0.65740317      -0.63156657      -2.45157240
C       -0.90989263      -0.90692880      -0.91072765
C        0.90977584       0.90977584      -0.90977584
C       -0.00465871       1.77757030       0.00794375
H       -0.66225468       2.44313916      -0.64384735
H        0.64322798       2.43503045       0.67728295
C       -1.78241447       0.00034974      -0.00472694
H       -2.45427497      -0.65498947       0.64260836
H       -2.43311707       0.67328779      -0.65473579
C       -0.91132561       0.90220522       0.91563759
C       -0.01476271      -0.02253852       1.78660255
H       -0.67934791      -0.69751639       2.42135241
H        0.63392994       0.61504881       2.47327442
C        0.01484550      -1.77751727      -0.01636693
H        0.67870853      -2.42144646      -0.68295456
H       -0.62264859      -2.45592969       0.64226336
C        1.78714474       0.01002794       0.00389507
H        2.44202412       0.67113390       0.66197326
H        2.45385902      -0.65136977      -0.64189061
C        0.91606151      -0.90478549       0.90901405
