194
Properties=species:S:1:pos:R:3 pbc="F F F"
C        5.67122688       0.60111660      -5.55341613
C        4.77562560       1.79645945      -5.86411844
N        5.46603394       3.07923935      -5.74704045
C        5.01884871       4.16852069      -5.04402441
N        4.16927689       4.35494247      -4.09654077
C        3.41410154       3.42138002      -3.39657102
C        3.96758684       2.35010710      -2.68981357
C        3.15464993       1.52047138      -1.90683836
C        1.79145034       1.79145034      -1.79145034
C        1.23205709       2.87746846      -2.45648117
C        2.04570247       3.68459096      -3.25436465
S        5.80463123       5.63987743      -5.61915473
C        7.11192132       4.70536682      -6.44914807
H        7.33145483       5.15955612      -7.42015297
C        8.32111916       4.68316225      -5.52986245
C        9.44000833       3.86146677      -6.12380266
O        9.50705261       2.66766569      -5.86051017
N       10.31401660       4.58596622      -6.91276874
C       11.45221361       4.07732993      -7.57778201
C       11.70864729       2.71331541      -7.74360080
C       12.87303939       2.27926902      -8.38656163
C       13.78652541       3.21098884      -8.86864255
Br      15.37174370       2.62374436      -9.71271539
C       13.53726583       4.57351272      -8.72952252
C       12.36789146       5.00435782      -8.09333547
C        6.47581277       3.34690312      -6.66220314
O        6.81478854       2.60831111      -7.58181212
H        5.07146477      -0.31142245      -5.47507423
H        6.21949434       0.73952165      -4.61686091
H        6.40624967       0.43470307      -6.34806276
H        3.88496737       1.76613895      -5.24054236
H        4.41856401       1.70620845      -6.89766826
H        5.03611600       2.16159851      -2.73135400
H        3.59685189       0.68326343      -1.37318363
H        0.17838373       3.12013197      -2.34747560
H        1.61815905       4.55623296      -3.74564048
H        8.68826598       5.70001691      -5.34082649
H        8.09114538       4.24543077      -4.54890059
H       10.21387975       5.59314243      -6.91890973
H       11.01454343       1.95477169      -7.39327380
H       13.05111501       1.21293408      -8.49937969
H       14.24687953       5.30616191      -9.10463921
H       12.20044418       6.07299719      -7.98843108
C       -4.76890773      -0.72463155      -6.33222034
C       -4.06836364      -2.07918753      -6.28865233
N       -4.98979984      -3.19846119      -6.10405271
C       -4.86064487      -4.19739242      -5.17335652
N       -4.21410379      -4.33643306      -4.07022329
C       -3.41810391      -3.41798983      -3.39595884
C       -3.86940472      -2.16438935      -2.97371345
C       -3.04885417      -1.34066959      -2.19243592
C       -1.79145034      -1.79145034      -1.79145034
C       -1.34346880      -3.05270388      -2.16983403
C       -2.15834080      -3.85715167      -2.96916561
S       -5.80309207      -5.61091788      -5.64965344
C       -6.77644475      -4.65383642      -6.83615504
H       -6.92364130      -5.23772815      -7.74979448
C       -8.08765213      -4.28045752      -6.16603421
C       -8.93456934      -3.41893271      -7.07177571
O       -8.82326489      -2.20120226      -7.01076133
N       -9.79444505      -4.13226797      -7.88603854
C      -10.70607537      -3.58480369      -8.81644650
C      -10.68222067      -2.25065183      -9.23269100
C      -11.63620993      -1.76763635     -10.13502377
C      -12.61898613      -2.62052547     -10.62664521
Br     -13.92320716      -1.96083412     -11.82416218
C      -12.64545593      -3.95697847     -10.23786666
C      -11.68500968      -4.43887574      -9.34169932
C       -5.87933919      -3.47015915      -7.13542069
O       -5.93390880      -2.86776109      -8.20324189
H       -4.03262216       0.08431923      -6.28681362
H       -5.46986913      -0.60522193      -5.50078585
H       -5.33118079      -0.59480348      -7.26303123
H       -3.29302747      -2.07276051      -5.52586069
H       -3.54704997      -2.23373808      -7.24165266
H       -4.86682425      -1.82538479      -3.23685946
H       -3.40806518      -0.36288664      -1.88234712
H       -0.38062913      -3.42979714      -1.83556503
H       -1.82610150      -4.85844993      -3.23548107
H       -8.65779953      -5.17778447      -5.89352538
H       -7.93482400      -3.71234261      -5.23831013
H       -9.87905564      -5.12708973      -7.71978654
H       -9.92384132      -1.55635287      -8.88239472
H      -11.59837811      -0.72502010     -10.44003057
H      -13.41041001      -4.62825070     -10.61901993
H      -11.73237406      -5.48354154      -9.04595685
C       -1.67242953       7.20063654       2.95269355
C       -3.05531092       6.57276587       2.80812670
N       -3.76647734       6.44713702       4.07869938
C       -4.37262175       5.31022401       4.54854805
N       -4.27382556       4.05347415       4.29346043
C       -3.41022026       3.39816984       3.42366249
C       -2.01769292       3.49303133       3.49678326
C       -1.20808427       2.70868512       2.66519029
C       -1.79145034       1.79145034       1.79145034
C       -3.17462637       1.65628064       1.73509971
C       -3.97464112       2.45977897       2.55023799
S       -5.57594289       5.71335808       5.77436242
C       -4.88397541       7.36690350       6.01555730
H       -5.69413017       8.09461440       6.12241935
C       -3.98044172       7.31791315       7.23578898
C       -3.30793312       8.64978198       7.46756266
O       -2.21689836       8.86353578       6.95479434
N       -4.01968195       9.50558742       8.28748219
C       -3.62259282      10.80302950       8.68170323
C       -2.57218775      11.50717301       8.08620274
C       -2.21262325      12.77789569       8.54835110
C       -2.90574101      13.35075268       9.60966312
Br      -2.40208022      15.05529529      10.25082795
C       -3.96720967      12.67170573      10.20138567
C       -4.32956485      11.40455493       9.73146497
C       -4.14888906       7.62073039       4.71529958
O       -3.96724010       8.75479977       4.28287190
H       -1.11338369       7.10552242       2.01621044
H       -1.09544151       6.72760663       3.75282877
H       -1.74028838       8.27010731       3.17861981
H       -2.97752408       5.61434452       2.29978007
H       -3.66127199       7.20961877       2.15154996
H       -1.55238650       4.16640304       4.21027897
H       -0.12688453       2.80256365       2.72385077
H       -3.64053638       0.92131468       1.08414023
H       -5.05484005       2.32997207       2.53522037
H       -4.54945626       7.04572204       8.13393108
H       -3.18098418       6.57153814       7.13295441
H       -4.83667040       9.13393795       8.75532356
H       -2.01495691      11.10046404       7.24716795
H       -1.38947580      13.30314652       8.07080646
H       -4.51286240      13.11436269      11.03045556
H       -5.15540498      10.89048670      10.21598078
C        1.75939523      -7.22444538       2.84191901
C        3.13182118      -6.56630747       2.73807485
N        3.81480195      -6.45240233       4.02510946
C        4.38819333      -5.31342343       4.52977706
N        4.26894980      -4.05396319       4.29784715
C        3.40970694      -3.39844828       3.42389736
C        2.01821712      -3.52253188       3.46675852
C        1.20956101      -2.73772802       2.63467064
C        1.79145034      -1.79145034       1.79145034
C        3.17243791      -1.62760268       1.76596613
C        3.97222193      -2.43140737       2.58102878
S        5.57478201      -5.71734014       5.77154124
C        4.91193483      -7.38892312       5.96557826
H        5.73443835      -8.10235545       6.07437013
C        3.98343471      -7.38280455       7.16790459
C        3.33368027      -8.73226174       7.35933575
O        2.25766507      -8.95725351       6.82030990
N        4.04620330      -9.59020997       8.17633830
C        3.66781606     -10.90306723       8.53644227
C        2.64404353     -11.61575567       7.90576431
C        2.30126719     -12.90253831       8.33506454
C        2.98459437     -13.48293690       9.39862554
Br       2.50303819     -15.20988019       9.99528507
C        4.02001206     -12.79503729      10.02525171
C        4.36580564     -11.51161126       9.58816785
C        4.20824472      -7.63084721       4.64582710
O        4.05837223      -8.75927902       4.18726052
H        1.21731804      -7.12146203       1.89633648
H        1.15705737      -6.77939780       3.63942174
H        1.84448443      -8.29672615       3.04780492
H        3.04470046      -5.59948178       2.24746644
H        3.76359098      -7.17745512       2.08139462
H        1.55257280      -4.21942994       4.15706577
H        0.12954078      -2.85432566       2.66943251
H        3.63618491      -0.87039596       1.13941043
H        5.04964021      -2.27980405       2.59058825
H        4.52876654      -7.11765275       8.08269009
H        3.17116394      -6.65058430       7.06372850
H        4.84596630      -9.21193795       8.66802766
H        2.09549612     -11.20325087       7.06384193
H        1.49866701     -13.43427469       7.83048708
H        4.55791634     -13.24350363      10.85626068
H        5.17118594     -10.99114110      10.09954542
C       -0.00445707       0.01189536      -1.78238275
H       -0.66409135       0.67374010      -2.43557963
H        0.65740317      -0.63156657      -2.45157240
C       -0.90989263      -0.90692880      -0.91072765
C        0.90977584       0.90977584      -0.90977584
C       -0.00465871       1.77757030       0.00794375
H       -0.66225468       2.44313916      -0.64384735
H        0.64322798       2.43503045       0.67728295
C       -1.78241447       0.00034974      -0.00472694
H       -2.45427497      -0.65498947       0.64260836
H       -2.43311707       0.67328779      -0.65473579
C       -0.91132561       0.90220522       0.91563759
C       -0.01476271      -0.02253852       1.78660255
H       -0.67934791      -0.69751639       2.42135241
H        0.63392994       0.61504881       2.47327442
C        0.01484550      -1.77751727      -0.01636693
H        0.67870853      -2.42144646      -0.68295456
H       -0.62264859      -2.45592969       0.64226336
C        1.78714474       0.01002794       0.00389507
H        2.44202412       0.67113390       0.66197326
H        2.45385902      -0.65136977      -0.64189061
C        0.91606151      -0.90478549       0.90901405
