62
Properties=species:S:1:pos:R:3 pbc="F F F"
C        1.78883070       1.78883070      -1.78883070
C        1.50849882       3.13916425      -1.94588645
N        2.24996667       3.97522978      -2.71271896
C        3.31558044       3.42783478      -3.34568650
C        3.66620487       2.08886863      -3.24311873
Br       5.16846113       1.41409177      -4.16144372
C        2.88919244       1.25087603      -2.44976107
H        0.66110229       3.60536468      -1.45081741
H        3.89118596       4.12150511      -3.95295530
H        3.13573828       0.19874581      -2.34796752
C       -1.78883070      -1.78883070      -1.78883070
C       -1.49172142      -3.13265161      -1.96917649
N       -2.23221585      -3.96833946      -2.73736010
C       -3.31442544      -3.42738650      -3.34728978
C       -3.68243355      -2.09516832      -3.22059036
Br      -5.20708871      -1.42908612      -4.10782178
C       -2.90604869      -1.25741910      -2.42636175
H       -0.63080949      -3.59360592      -1.49286896
H       -3.88881616      -4.12058536      -3.95624485
H       -3.16595619      -0.21047562      -2.30601980
C       -1.78883070       1.78883070       1.78883070
C       -3.02583145       1.33864399       2.22907408
N       -3.85531764       2.07025121       3.01234656
C       -3.42003114       3.30388492       3.36518566
C       -2.19849352       3.83050256       2.96919615
Br      -1.67502602       5.55953013       3.50944046
C       -1.36474503       3.05985090       2.16523361
H       -3.40072828       0.35440836       1.96214774
H       -4.10549331       3.86718866       3.99296440
H       -0.40287399       3.44167051       1.83790711
C        1.78883070      -1.78883070       1.78883070
C        3.09262367      -1.41592378       2.08500207
N        3.92598545      -2.15201353       2.85991642
C        3.42462943      -3.30920459       3.35526770
C        2.13388594      -3.75574994       3.10855636
Br       1.52124631      -5.38160494       3.84114537
C        1.29763861      -2.98220908       2.30998185
H        3.52132691      -0.49394063       1.70201683
H        4.11492801      -3.87810329       3.97261507
H        0.28257367      -3.30248239       2.09739554
C       -0.00445707       0.01189536      -1.78238275
H       -0.66409135       0.67374010      -2.43557963
H        0.65740317      -0.63156657      -2.45157240
C       -0.90989263      -0.90692880      -0.91072765
C        0.90977584       0.90977584      -0.90977584
C       -0.00465871       1.77757030       0.00794375
H       -0.66225468       2.44313916      -0.64384735
H        0.64322798       2.43503045       0.67728295
C       -1.78241447       0.00034974      -0.00472694
H       -2.45427497      -0.65498947       0.64260836
H       -2.43311707       0.67328779      -0.65473579
C       -0.91132561       0.90220522       0.91563759
C       -0.01476271      -0.02253852       1.78660255
H       -0.67934791      -0.69751639       2.42135241
H        0.63392994       0.61504881       2.47327442
C        0.01484550      -1.77751727      -0.01636693
H        0.67870853      -2.42144646      -0.68295456
H       -0.62264859      -2.45592969       0.64226336
C        1.78714474       0.01002794       0.00389507
H        2.44202412       0.67113390       0.66197326
H        2.45385902      -0.65136977      -0.64189061
C        0.91606151      -0.90478549       0.90901405
