86
Properties=species:S:1:pos:R:3 pbc="F F F"
O        0.29392931       3.70988409      -5.21466649
C        1.47309190       3.86289534      -4.91569751
C        2.05770433       3.21464119      -3.72441310
C        1.24723024       2.40651268      -2.91733163
C        1.79172973       1.79172973      -1.79172973
C        3.13441642       1.97238708      -1.46073333
C        3.93677081       2.77861431      -2.26870933
C        3.40452406       3.40281591      -3.40237194
O        4.18340784       4.19581275      -4.20165944
H        2.13901217       4.49217469      -5.52862086
H        0.19843508       2.26291244      -3.17240112
H        3.54966562       1.48824104      -0.58034479
H        5.08502089       4.21092407      -3.82630595
C        5.32121409       2.95605818      -1.91454768
C        6.48068534       3.10466741      -1.61793729
Br       8.35545228       3.34495598      -1.13834339
O       -5.95483566      -1.99003045      -1.27361378
C       -5.43350651      -2.65971677      -2.15846147
C       -3.97506807      -2.63222046      -2.38947009
C       -3.16849146      -1.82291887      -1.57966423
C       -1.79172973      -1.79172973      -1.79172973
C       -1.20888623      -2.55757785      -2.80107277
C       -2.01769091      -3.36187954      -3.60452399
C       -3.40192612      -3.40385180      -3.40393398
O       -4.20425357      -4.18978503      -4.18684142
H       -6.03854328      -3.30732134      -2.81394311
H       -3.61971898      -1.22352674      -0.79050293
H       -0.13362765      -2.52623093      -2.95839288
H       -3.63679979      -4.65125971      -4.83419141
C       -1.40197281      -4.14707475      -4.64277238
C       -0.88630890      -4.80467574      -5.51230541
Br      -0.05252398      -5.86796091      -6.91826676
O       -1.51645070       1.72003695       5.98199224
C       -2.32839364       2.47078101       5.45251011
C       -2.47181111       2.54067120       3.98427631
C       -1.66218272       1.73117229       3.17771955
C       -1.79172973       1.79172973       1.79172973
C       -2.71865080       2.64921710       1.19966894
C       -3.52241056       3.45317576       2.00850812
C       -3.40405243       3.40372011       3.40193937
O       -4.18802041       4.18847419       4.20438542
H       -2.98110325       3.12146759       6.05723688
H       -0.93730628       1.06030629       3.63613608
H       -2.81199911       2.68899600       0.11725635
H       -4.77239130       4.71997095       3.62988865
C       -4.47492989       4.33368715       1.38320290
C       -5.27266483       5.07111544       0.85950977
Br      -6.56253476       6.26347461       0.01274228
O        5.59983300      -3.06171090       0.55693599
C        5.18513423      -3.40947676       1.65707377
C        3.85480655      -2.99521003       2.14674205
C        3.04798314      -2.18664724       1.33644417
C        1.79172973      -1.79172973       1.79172973
C        1.32959749      -2.19306758       3.04487177
C        2.13799029      -2.99859340       3.84751076
C        3.40203579      -3.40338159       3.40429452
O        4.20288035      -4.19375815       4.18424152
H        5.79402621      -4.04554025       2.32024126
H        3.40515666      -1.87122237       0.35736962
H        0.34781825      -1.87954576       3.39088746
H        3.72754442      -4.37712382       5.01758267
C        1.64768813      -3.40513980       5.13899201
C        1.23706008      -3.74562241       6.22060756
Br       0.57310924      -4.29615399       7.96948842
C       -0.00445707       0.01189536      -1.78238275
H       -0.66409135       0.67374010      -2.43557963
H        0.65740317      -0.63156657      -2.45157240
C       -0.90989263      -0.90692880      -0.91072765
C        0.90977584       0.90977584      -0.90977584
C       -0.00465871       1.77757030       0.00794375
H       -0.66225468       2.44313916      -0.64384735
H        0.64322798       2.43503045       0.67728295
C       -1.78241447       0.00034974      -0.00472694
H       -2.45427497      -0.65498947       0.64260836
H       -2.43311707       0.67328779      -0.65473579
C       -0.91132561       0.90220522       0.91563759
C       -0.01476271      -0.02253852       1.78660255
H       -0.67934791      -0.69751639       2.42135241
H        0.63392994       0.61504881       2.47327442
C        0.01484550      -1.77751727      -0.01636693
H        0.67870853      -2.42144646      -0.68295456
H       -0.62264859      -2.45592969       0.64226336
C        1.78714474       0.01002794       0.00389507
H        2.44202412       0.67113390       0.66197326
H        2.45385902      -0.65136977      -0.64189061
C        0.91606151      -0.90478549       0.90901405
