78
Properties=species:S:1:pos:R:3 pbc="F F F"
O        0.29392931       3.70988409      -5.21466649
C        1.47309190       3.86289534      -4.91569751
C        2.05770433       3.21464119      -3.72441310
C        1.24723024       2.40651268      -2.91733163
C        1.79172973       1.79172973      -1.79172973
C        3.13441642       1.97238708      -1.46073333
C        3.93677081       2.77861431      -2.26870933
Br       5.75978433       3.01226965      -1.80235474
C        3.40452406       3.40281591      -3.40237194
O        4.18340784       4.19581275      -4.20165944
H        2.13901217       4.49217469      -5.52862086
H        0.19843508       2.26291244      -3.17240112
H        3.54966562       1.48824104      -0.58034479
H        5.08502089       4.21092407      -3.82630595
O       -5.82618919      -2.51592655      -0.87636415
C       -5.34349956      -3.02764020      -1.88054499
C       -3.93148447      -2.81034807      -2.25492609
C       -3.12481808      -2.00140913      -1.44484734
C       -1.79172973      -1.79172973      -1.79172973
C       -1.25262390      -2.37870695      -2.93620598
C       -2.06127827      -3.18360970      -3.73920648
Br      -1.31035286      -3.97287070      -5.29118515
C       -3.40195827      -3.40362358      -3.40413006
O       -4.20374653      -4.19173784      -4.18539565
H       -5.94993869      -3.66957956      -2.54028947
H       -3.54196420      -1.54136502      -0.55041942
H       -0.21124162      -2.20889052      -3.19811932
H       -3.66967326      -4.51673902      -4.93583863
O       -1.07883094       2.23249459       5.90715437
C       -2.02222762       2.82929959       5.40015754
C       -2.32357981       2.71424016       3.95893866
C       -1.51364918       1.90509387       3.15233150
C       -1.79172973       1.79172973       1.79172973
C       -2.86748884       2.47490364       1.22514436
C       -3.67074706       3.27944560       2.03390179
Br      -5.12860719       4.20046256       1.24533897
C       -3.40423229       3.40348046       3.40199915
O       -4.18638295       4.19035573       4.20414134
H       -2.67965848       3.47447777       6.00567147
H       -0.67281823       1.37001971       3.59091071
H       -3.07606478       2.37975389       0.16243279
H       -4.88431731       4.58886339       3.64907021
O        5.52309502      -3.20965200       0.48573287
C        5.13144649      -3.51297778       1.60726049
C        3.82881245      -3.04531865       2.12262753
C        3.02193590      -2.23685778       1.31228088
C        1.79172973      -1.79172973       1.79172973
C        1.35569422      -2.14274725       3.06909537
C        2.16399862      -2.94844183       3.87165399
Br       1.55407643      -3.41494568       5.60538661
C        3.40206412      -3.40331515       3.40433263
O        4.20258924      -4.19430473       4.18398605
H        5.74116860      -4.14744914       2.27118999
H        3.35877730      -1.96063384       0.31433751
H        0.39412096      -1.79027255       3.43385794
H        3.74716646      -4.33927832       5.03580613
C       -0.00445707       0.01189536      -1.78238275
H       -0.66409135       0.67374010      -2.43557963
H        0.65740317      -0.63156657      -2.45157240
C       -0.90989263      -0.90692880      -0.91072765
C        0.90977584       0.90977584      -0.90977584
C       -0.00465871       1.77757030       0.00794375
H       -0.66225468       2.44313916      -0.64384735
H        0.64322798       2.43503045       0.67728295
C       -1.78241447       0.00034974      -0.00472694
H       -2.45427497      -0.65498947       0.64260836
H       -2.43311707       0.67328779      -0.65473579
C       -0.91132561       0.90220522       0.91563759
C       -0.01476271      -0.02253852       1.78660255
H       -0.67934791      -0.69751639       2.42135241
H        0.63392994       0.61504881       2.47327442
C        0.01484550      -1.77751727      -0.01636693
H        0.67870853      -2.42144646      -0.68295456
H       -0.62264859      -2.45592969       0.64226336
C        1.78714474       0.01002794       0.00389507
H        2.44202412       0.67113390       0.66197326
H        2.45385902      -0.65136977      -0.64189061
C        0.91606151      -0.90478549       0.90901405
