137
Properties=species:S:1:pos:R:3 pbc="F F F"
C        0.00000000       0.00000000       0.00000000
O        3.82567448       7.20220783      -3.81903264
C        3.60769622       6.09960500      -4.31409987
C        2.76818174       5.07035457      -3.56595681
S        3.58177659       3.43452943      -3.57008788
C        2.49421719       2.48972844      -2.51436184
C        3.06993339       1.57559125      -1.62195097
C        2.26735707       0.77433877      -0.80424355
C        0.88151945       0.88151945      -0.88151945
C        0.29430393       1.78052909      -1.76811588
C        1.09981380       2.57865397      -2.58661921
N        3.97435345       5.68676205      -5.58568190
C        4.69174825       6.40764937      -6.56014111
C        5.14277991       7.71452381      -6.38828370
C        5.85081918       8.35649088      -7.40914661
C        6.11009712       7.69884706      -8.61304877
C        5.66555956       6.38483584      -8.81199242
C        5.91035898       5.63753049     -10.09291407
C        4.95679183       5.75343100      -7.77260186
H        1.79203062       5.01889075      -4.05735285
H        2.63546740       5.40815390      -2.53340006
H        4.15200610       1.47513096      -1.55628028
H        2.73312578       0.07002088      -0.11997310
H       -0.78754913       1.86080040      -1.83984487
H        0.61285586       3.24765069      -3.28897811
H        3.75180831       4.72338239      -5.81291772
H        4.96616416       8.26606334      -5.47069967
H        6.19526703       9.37550662      -7.24830588
H        5.52248685       4.61432128     -10.04108161
H        6.98317243       5.56555277     -10.29813720
H        5.40676559       6.13616348     -10.92737654
H        4.60692833       4.73358380      -7.92102092
C        6.84070842       8.41977785      -9.62303191
C        7.45259538       9.02355738     -10.46889279
Br       8.44196484       9.99981781     -11.83657829
O       -5.75104369      -2.72438790      -6.37148336
C       -5.56448317      -3.20159296      -5.25532496
C       -4.68532917      -2.47598646      -4.24317749
S       -3.48878954      -3.62295451      -3.47464985
C       -2.50682657      -2.50719294      -2.48428797
C       -1.12480293      -2.72783071      -2.41484196
C       -0.31158471      -1.91617362      -1.61818105
C       -0.88151945      -0.88151945      -0.88151945
C       -2.25425210      -0.65381171      -0.93488510
C       -3.06532833      -1.46915034      -1.73060830
N       -6.16720683      -4.33896237      -4.74062822
C       -7.08025311      -5.20218635      -5.37709928
C       -7.55133010      -5.01893242      -6.67532490
C       -8.45725574      -5.92728949      -7.23191144
C       -8.90394266      -7.02464260      -6.49340769
C       -8.44707968      -7.23059372      -5.18471442
C       -8.90523412      -8.39021502      -4.34535439
C       -7.53347181      -6.30766248      -4.64169041
H       -5.34337413      -2.03828063      -3.48661947
H       -4.14372876      -1.67589680      -4.75739580
H       -0.66618688      -3.53809949      -2.97913098
H        0.75794918      -2.10478039      -1.57628855
H       -2.70581858       0.14626593      -0.35354349
H       -4.13518285      -1.28640286      -1.72789895
H       -5.85995902      -4.61435483      -3.81379458
H       -7.23280759      -4.18202772      -7.28809187
H       -8.80670580      -5.76360482      -8.24876892
H       -8.40728755      -8.40096402      -3.36963818
H       -8.66998414      -9.33912136      -4.83775690
H       -9.98261618      -8.32583354      -4.16185588
H       -7.17594903      -6.46043613      -3.62514789
C       -9.83947929      -7.91811799      -7.12592089
C      -10.62299121      -8.66640363      -7.65565070
Br     -11.88986372      -9.87631822      -8.51217899
O       -5.38348386       6.64645191       2.81697918
C       -4.54604902       6.01720734       3.45814472
C       -3.59196247       5.06111632       2.75141434
S       -3.51740079       3.45324600       3.61574711
C       -2.48616406       2.49974542       2.51239799
C       -2.81155552       1.15299593       2.30292416
C       -2.01408452       0.34455465       1.48730021
C       -0.88151945       0.88151945       0.88151945
C       -0.54126792       2.21635477       1.08532621
C       -1.33951469       3.02167559       1.90389670
N       -4.28468302       6.14892912       4.81318527
C       -4.92731535       6.98769468       5.74452870
C       -5.95775680       7.86746426       5.42036637
C       -6.54241401       8.66438912       6.40965354
C       -6.09855334       8.59209685       7.73134276
C       -5.06220741       7.71691011       8.08327030
C       -4.54204214       7.60942318       9.48933821
C       -4.48731225       6.92049785       7.07501460
H       -2.60589162       5.53450809       2.72787451
H       -3.94338689       4.90726994       1.72636453
H       -3.68972693       0.71724501       2.77644540
H       -2.28236904      -0.69814903       1.33889975
H        0.34782233       2.63794767       0.62297080
H       -1.03186017       4.04946966       2.06815483
H       -3.58715051       5.51406432       5.18689360
H       -6.33679547       7.95839132       4.40774039
H       -7.34780581       9.34016025       6.13111347
H       -3.76158529       6.84505064       9.57125383
H       -5.34511374       7.32506567      10.17668298
H       -4.10272823       8.56055272       9.80702465
H       -3.68069852       6.23991665       7.34091787
C       -6.74170495       9.44334093       8.69847229
C       -7.28034443      10.15625784       9.50844327
Br      -8.15127890      11.30898420      10.81809784
O        4.24833237      -3.44466344       7.15391913
C        4.62059642      -3.41692359       5.98388108
C        3.84700839      -2.61038619       4.94709855
S        3.55154052      -3.59686948       3.43798390
C        2.51349870      -2.49728324       2.48752552
C        1.45302844      -3.05412440       1.76032277
C        0.63570904      -2.24947566       0.96075468
C        0.88151945      -0.88151945       0.88151945
C        1.93563151      -0.31431010       1.59300728
C        2.75300741      -1.12230310       2.38977647
N        5.77995141      -3.98637365       5.48047235
C        6.75112128      -4.73605160       6.17236585
C        6.69709917      -5.01154553       7.53694272
C        7.70502036      -5.76678806       8.14464826
C        8.77865077      -6.24937758       7.39396461
C        8.85772740      -5.98453000       6.02013042
C        9.99749171      -6.47273656       5.17057526
C        7.83297226      -5.22502527       5.42482717
H        4.43463195      -1.71666893       4.71697335
H        2.88732849      -2.31031412       5.37937875
H        1.25371012      -4.12344573       1.80626150
H       -0.18059360      -2.70079982       0.40291354
H        2.13832913       0.75175157       1.52651858
H        3.58503172      -0.65637357       2.90807938
H        5.90648504      -3.90441297       4.47721041
H        5.88283447      -4.65875902       8.16133368
H        7.63726455      -5.97105669       9.21075830
H        9.86001906      -6.19911279       4.11875790
H       10.06979611      -7.56416051       5.21290578
H       10.93991854      -6.02638673       5.50400034
H        7.88899086      -5.01393429       4.35860790
C        9.78334614      -7.01659077       8.08358126
C       10.62477851      -7.65913182       8.66113521
Br      11.98530350      -8.69806635       9.59499110
