158
Properties=species:S:1:pos:R:3 pbc="F F F"
O        4.73557850       8.11211185      -4.72893666
C        4.51760025       7.00950903      -5.22400389
C        3.67808576       5.98025860      -4.47586084
S        4.49168061       4.34443345      -4.47999190
C        3.40412122       3.39963246      -3.42426587
C        3.97983741       2.48549528      -2.53185499
C        3.17726109       1.68424279      -1.71414757
C        1.79142348       1.79142348      -1.79142348
C        1.20420795       2.69043311      -2.67801991
C        2.00971782       3.48855799      -3.49652323
N        4.88425748       6.59666608      -6.49558593
C        5.60165227       7.31755340      -7.47004513
C        6.05268394       8.62442783      -7.29818772
C        6.76072320       9.26639491      -8.31905064
C        7.02000115       8.60875109      -9.52295279
C        6.57546358       7.29473986      -9.72189645
C        6.82026300       6.54743451     -11.00281809
C        5.86669586       6.66333503      -8.68250589
H        2.70193464       5.92879478      -4.96725688
H        3.54537143       6.31805793      -3.44330408
H        5.06191012       2.38503499      -2.46618431
H        3.64302981       0.97992490      -1.02987712
H        0.12235490       2.77070442      -2.74974890
H        1.52275989       4.15755472      -4.19888213
H        4.66171234       5.63328642      -6.72282175
H        5.87606818       9.17596736      -6.38060370
H        7.10517105      10.28541065      -8.15820991
H        6.43239088       5.52422531     -10.95098564
H        7.89307646       6.47545679     -11.20804122
H        6.31666961       7.04606751     -11.83728056
H        5.51683235       5.64348782      -8.83092495
C        7.75061244       9.32968187     -10.53293593
C        8.36249940       9.93346140     -11.37879681
Br       9.35186886      10.90972183     -12.74648232
O       -6.65024645      -3.63613933      -7.29024124
C       -6.46835550      -4.11060971      -6.17214795
C       -5.59004154      -3.38461147      -5.15955219
S       -4.39912881      -4.53281587      -4.38416128
C       -3.41679764      -3.41703079      -3.39419111
C       -2.03563687      -3.64150807      -3.32004274
C       -1.22237477      -2.82989956      -2.52337712
C       -1.79142348      -1.79142348      -1.79142348
C       -3.16331965      -1.55985628      -1.84948504
C       -3.97445334      -2.37514981      -2.64519589
N       -7.07591944      -5.24469417      -5.65589588
C       -7.98962901      -6.10710665      -6.29251514
C       -8.45636401      -5.92628656      -7.59264893
C       -9.36331932      -6.83361808      -8.14923135
C       -9.81538549      -7.92748629      -7.40883325
C       -9.36296165      -8.13093104      -6.09820720
C       -9.82697326      -9.28673726      -5.25680509
C       -8.44824169      -7.20908779      -5.55520730
H       -6.24901038      -2.94276227      -4.40621364
H       -5.04459185      -2.58762354      -5.67451803
H       -1.57775172      -4.45476883      -3.88060888
H       -0.15352637      -3.02151232      -2.47779314
H       -3.61423512      -0.75675715      -1.27181594
H       -5.04377012      -2.18926443      -2.64616220
H       -6.77219562      -5.51826274      -4.72736214
H       -8.13359377      -5.09212025      -8.20692522
H       -9.70930946      -6.67189709      -9.16758506
H       -9.33191850      -9.29607933      -4.27960400
H       -9.59306966     -10.23776956      -5.74573525
H      -10.90469417      -9.21866409      -5.07665942
H       -8.09414595      -7.35992239      -4.53717678
C      -10.75168561      -8.82007247      -8.04147217
C      -11.53583695      -9.56761340      -8.57130726
Br     -12.80374336     -10.77632385      -9.42800580
O       -4.74722950       8.11204907       4.71734844
C       -4.52375757       7.01191231       5.21544329
C       -3.68327608       5.98297879       4.46795033
S       -4.49121363       4.34439494       4.48049740
C       -3.40403662       3.39970189       3.42428103
C       -3.97966064       2.48052633       2.53700070
C       -3.17714081       1.67922172       1.71928892
C       -1.79142348       1.79142348       1.79142348
C       -1.20426812       2.69549110       2.67290175
C       -2.00970796       3.49366082       3.49143026
N       -4.88462463       6.60219498       6.48968988
C       -5.60114920       7.32396755       7.46413406
C       -6.05726600       8.62868674       7.28934675
C       -6.76400411       9.27173191       8.31043273
C       -7.01688237       8.61735205       9.51747060
C       -6.56714206       7.30556714       9.71939069
C       -6.80496885       6.56184175      11.00370501
C       -5.85977546       6.67302278       8.67973853
H       -2.70527279       5.93655802       4.95615549
H       -3.55527038       6.31767365       3.43378940
H       -5.06159998       2.37612739       2.47540205
H       -3.64282690       0.97095712       1.03904781
H       -0.12245812       2.77972142       2.74062868
H       -1.52264919       4.16673969       4.18980786
H       -4.65798452       5.64037305       6.71946293
H       -5.88570091       9.17766589       6.36927245
H       -7.11250922      10.28899955       8.14728285
H       -6.41375544       5.53979731      10.95404906
H       -7.87681742       6.48688972      11.21286733
H       -6.30023474       7.06507093      11.83471201
H       -5.50589453       5.65489950       8.83045110
C       -7.74650152       9.33924506      10.52748367
C       -8.35755756       9.94383045      11.37336960
Br      -9.34558349      10.92139389      12.74109563
O        6.68401973      -3.63049282       7.26211447
C        6.48735292      -4.11354561       6.15021464
C        5.60638283      -3.38877337       5.13904900
S        4.39775581      -4.53294250       4.38540766
C        3.41658494      -3.41723938       3.39419523
C        2.03278093      -3.62951817       3.33488857
C        1.21965814      -2.81775638       2.53823693
C        1.79142348      -1.79142348       1.79142348
C        3.16587928      -1.57211752       1.83466416
C        3.97683095      -2.38755301       2.63041509
N        7.07959176      -5.25795484       5.63896288
C        7.99119401      -6.12292859       6.27512821
C        8.47166616      -5.93447396       7.56915938
C        9.37535481      -6.84503851       8.12577542
C        9.81039278      -7.94985504       7.39145721
C        9.34392407      -8.16116250       6.08701333
C        9.78939421      -9.32895498       5.25216642
C        8.43273184      -7.23588980       5.54391514
H        6.26235602      -2.96005087       4.37557941
H        5.07313036      -2.58202206       5.65158101
H        1.57265157      -4.43327191       3.90720594
H        0.14870896      -2.99981862       2.50430426
H        3.61878651      -0.77861745       1.24540426
H        5.04778008      -2.21163372       2.61978293
H        6.76472183      -5.53723924       4.71585943
H        8.16234198      -5.09170499       8.17859227
H        9.73229189      -6.67715691       9.13934280
H        9.28519467      -9.34270271       4.27970445
H        9.55128868     -10.27321548       5.75207031
H       10.86597286      -9.27258727       5.06145755
H        8.06779332      -7.39280748       4.53064433
C       10.74426812      -8.84524702       8.02371510
C       11.52638873      -9.59513780       8.55323108
Br      12.79101160     -10.80764777       9.40941365
C       -0.00445707       0.01189536      -1.78238275
H       -0.66409135       0.67374010      -2.43557963
H        0.65740317      -0.63156657      -2.45157240
C       -0.90989263      -0.90692880      -0.91072765
C        0.90977584       0.90977584      -0.90977584
C       -0.00465871       1.77757030       0.00794375
H       -0.66225468       2.44313916      -0.64384735
H        0.64322798       2.43503045       0.67728295
C       -1.78241447       0.00034974      -0.00472694
H       -2.45427497      -0.65498947       0.64260836
H       -2.43311707       0.67328779      -0.65473579
C       -0.91132561       0.90220522       0.91563759
C       -0.01476271      -0.02253852       1.78660255
H       -0.67934791      -0.69751639       2.42135241
H        0.63392994       0.61504881       2.47327442
C        0.01484550      -1.77751727      -0.01636693
H        0.67870853      -2.42144646      -0.68295456
H       -0.62264859      -2.45592969       0.64226336
C        1.78714474       0.01002794       0.00389507
H        2.44202412       0.67113390       0.66197326
H        2.45385902      -0.65136977      -0.64189061
C        0.91606151      -0.90478549       0.90901405
