129
Properties=species:S:1:pos:R:3 pbc="F F F"
C        0.00000000       0.00000000       0.00000000
O        3.82567448       7.20220783      -3.81903264
C        3.60769622       6.09960500      -4.31409987
C        2.76818174       5.07035457      -3.56595681
S        3.58177659       3.43452943      -3.57008788
C        2.49421719       2.48972844      -2.51436184
C        3.06993339       1.57559125      -1.62195097
C        2.26735707       0.77433877      -0.80424355
C        0.88151945       0.88151945      -0.88151945
C        0.29430393       1.78052909      -1.76811588
C        1.09981380       2.57865397      -2.58661921
N        3.97435345       5.68676205      -5.58568190
C        4.69174825       6.40764937      -6.56014111
C        5.14277991       7.71452381      -6.38828370
C        5.85081918       8.35649088      -7.40914661
C        6.11009712       7.69884706      -8.61304877
Br       7.07352575       8.64951038      -9.94487416
C        5.66555956       6.38483584      -8.81199242
C        5.91035898       5.63753049     -10.09291407
C        4.95679183       5.75343100      -7.77260186
H        1.79203062       5.01889075      -4.05735285
H        2.63546740       5.40815390      -2.53340006
H        4.15200610       1.47513096      -1.55628028
H        2.73312578       0.07002088      -0.11997310
H       -0.78754913       1.86080040      -1.83984487
H        0.61285586       3.24765069      -3.28897811
H        3.75180831       4.72338239      -5.81291772
H        4.96616416       8.26606334      -5.47069967
H        6.19526703       9.37550662      -7.24830588
H        5.52248685       4.61432128     -10.04108161
H        6.98317243       5.56555277     -10.29813720
H        5.40676559       6.13616348     -10.92737654
H        4.60692833       4.73358380      -7.92102092
O       -7.09774577      -4.46186079      -3.28730839
C       -5.90936448      -4.76628352      -3.34575310
C       -4.87150904      -3.97917458      -2.55380951
S       -3.44099030      -3.54242913      -3.60297446
C       -2.48666432      -2.51287801      -2.49876514
C       -1.85261950      -1.38279859      -3.03205751
C       -1.05373253      -0.56581598      -2.22639087
C       -0.88151945      -0.88151945      -0.88151945
C       -1.49964582      -2.00491625      -0.33838683
C       -2.29593463      -2.82160802      -1.14754433
N       -5.37693580      -5.86123196      -4.00862965
C       -6.05682299      -6.82832245      -4.77439330
C       -7.43603423      -6.83881436      -4.97073883
C       -8.03030554      -7.83732652      -5.74882462
C       -7.25105555      -8.83720042      -6.33373699
Br      -8.14351725     -10.15508371      -7.36930932
C       -5.86185791      -8.85055702      -6.14997290
C       -4.98074139      -9.91028224      -6.74977990
C       -5.28062730      -7.83622229      -5.36597511
H       -4.55770686      -4.60069509      -1.70987228
H       -5.33774164      -3.06428639      -2.17499332
H       -1.97168451      -1.12793629      -4.08379655
H       -0.56891617       0.30520555      -2.65940914
H       -1.36010087      -2.26177023       0.70877496
H       -2.73962360      -3.70680096      -0.70306011
H       -4.36516140      -5.93341651      -3.98953051
H       -8.08268363      -6.08296825      -4.53727529
H       -9.10861643      -7.82065986      -5.88980325
H       -3.92393331      -9.72703124      -6.52692520
H       -5.08254583      -9.92474182      -7.83957475
H       -5.23521095     -10.89367307      -6.34142159
H       -4.20245612      -7.84155868      -5.21751825
O       -6.79214291       2.90495306       5.14981898
C       -6.07554087       3.55366487       4.39219535
C       -5.10497047       2.84590504       3.45361762
S       -3.44772088       3.61139544       3.52727757
C       -2.49815933       2.51314712       2.48700102
C       -1.18885086       2.20158266       2.87704208
C       -0.38151286       1.38534250       2.07908402
C       -0.88151945       0.88151945       0.88151945
C       -2.17836456       1.18756652       0.47701782
C       -2.98246923       2.00650284       1.27611490
N       -6.11115811       4.92725268       4.20838663
C       -6.93229758       5.86974428       4.85749688
C       -7.89195225       5.54116115       5.81247402
C       -8.66440309       6.54217645       6.40987713
C       -8.48735022       7.88052841       6.05411432
Br      -9.58382847       9.17135625       6.91272557
C       -7.53026813       8.23740615       5.09471354
C       -7.30845964       9.66210710       4.67023679
C       -6.76004637       7.21695188       4.50582646
H       -5.51665234       2.90965796       2.44196392
H       -5.03358702       1.79444994       3.74898439
H       -0.78160455       2.59482673       3.80698607
H        0.63199211       1.15689145       2.39822042
H       -2.57017129       0.80520596      -0.46228110
H       -3.97774064       2.25213159       0.91961244
H       -5.41332559       5.30094227       3.57384057
H       -8.06543761       4.51569791       6.12179165
H       -9.40413009       6.25953547       7.15541397
H       -6.49352239       9.74186934       3.94249802
H       -7.03485718      10.28221120       5.52979402
H       -8.21016887      10.06354341       4.19659333
H       -6.01619095       7.48677454       3.75856756
O        2.69871387      -6.17445459       5.97374649
C        3.22947855      -5.10459974       5.68732281
C        2.51130617      -4.10284368       4.79034327
S        3.62328546      -3.48333160       3.47977684
C        2.50855284      -2.48439940       2.50535524
C        2.64366270      -2.51288479       1.11092811
C        1.83099946      -1.71625971       0.29868021
C        0.88151945      -0.88151945       0.88151945
C        0.73974104      -0.83712297       2.26608489
C        1.55599037      -1.63318010       3.07591650
N        4.43225542      -4.62863661       6.18590538
C        5.31237874      -5.26298247       7.08417751
C        5.08171633      -6.51591062       7.64796047
C        6.01116393      -7.07401551       8.53127723
C        7.17756548      -6.38196955       8.86245793
Br       8.38010775      -7.21403166      10.07377087
C        7.43238278      -5.11921545       8.31078960
C        8.66763878      -4.33001754       8.64314721
C        6.48710470      -4.57414711       7.42157289
H        2.16331421      -3.28134568       5.42361434
H        1.64845308      -4.59632503       4.33224324
H        3.38720106      -3.15477323       0.64144306
H        1.95263163      -1.75125732      -0.78076919
H        0.00693078      -0.17932951       2.72683586
H        1.44290921      -1.55411191       4.15246355
H        4.74279914      -3.74168159       5.80362771
H        4.19058301      -7.09171539       7.42062877
H        5.80916861      -8.05527703       8.95463390
H        8.70526166      -3.38887249       8.08375560
H        9.56797825      -4.89572268       8.38316147
H        8.68386576      -4.07802117       9.70841867
H        6.67769344      -3.59298535       6.99085426
