150
Properties=species:S:1:pos:R:3 pbc="F F F"
O        4.73557850       8.11211185      -4.72893666
C        4.51760025       7.00950903      -5.22400389
C        3.67808576       5.98025860      -4.47586084
S        4.49168061       4.34443345      -4.47999190
C        3.40412122       3.39963246      -3.42426587
C        3.97983741       2.48549528      -2.53185499
C        3.17726109       1.68424279      -1.71414757
C        1.79142348       1.79142348      -1.79142348
C        1.20420795       2.69043311      -2.67801991
C        2.00971782       3.48855799      -3.49652323
N        4.88425748       6.59666608      -6.49558593
C        5.60165227       7.31755340      -7.47004513
C        6.05268394       8.62442783      -7.29818772
C        6.76072320       9.26639491      -8.31905064
C        7.02000115       8.60875109      -9.52295279
Br       7.98342977       9.55941440     -10.85477818
C        6.57546358       7.29473986      -9.72189645
C        6.82026300       6.54743451     -11.00281809
C        5.86669586       6.66333503      -8.68250589
H        2.70193464       5.92879478      -4.96725688
H        3.54537143       6.31805793      -3.44330408
H        5.06191012       2.38503499      -2.46618431
H        3.64302981       0.97992490      -1.02987712
H        0.12235490       2.77070442      -2.74974890
H        1.52275989       4.15755472      -4.19888213
H        4.66171234       5.63328642      -6.72282175
H        5.87606818       9.17596736      -6.38060370
H        7.10517105      10.28541065      -8.15820991
H        6.43239088       5.52422531     -10.95098564
H        7.89307646       6.47545679     -11.20804122
H        6.31666961       7.04606751     -11.83728056
H        5.51683235       5.64348782      -8.83092495
O       -6.88567912      -3.60850187      -7.08244603
C       -6.59832101      -4.13972350      -6.01306865
C       -5.70117593      -3.42161222      -5.01141705
S       -4.38959918      -4.53318736      -4.39331942
C       -3.41524516      -3.41846909      -3.39430530
C       -2.02075629      -3.55274798      -3.42368341
C       -1.20851775      -2.74007562      -2.62705808
C       -1.79142348      -1.79142348      -1.79142348
C       -3.17604526      -1.65047956      -1.74613614
C       -3.98586509      -2.46673694      -2.54219702
N       -7.09592349      -5.34306891      -5.53751708
C       -7.99405209      -6.22334627      -6.17185244
C       -8.55870115      -5.99228192      -7.42431643
C       -9.44180107      -6.92191931      -7.98244837
C       -9.77189678      -8.08891776      -7.29089049
Br     -10.98299337      -9.29168137      -8.12294762
C       -9.21934251      -8.34414979      -6.02860760
C       -9.55051820      -9.58006006      -5.23993734
C       -8.33035949      -7.39867088      -5.48350641
H       -6.33417014      -3.07446963      -4.18934652
H       -5.24386782      -2.55820390      -5.50466172
H       -1.55121229      -4.29563730      -4.06627983
H       -0.12901817      -2.86105696      -2.66275670
H       -3.63683963      -0.91832252      -1.08764606
H       -5.06243159      -2.35433063      -2.46243452
H       -6.71294675      -5.65390693      -4.65096682
H       -8.33222586      -5.10068010      -7.99973328
H       -9.86584851      -6.71959859      -8.96334450
H       -8.99055523      -9.61790554      -4.29914106
H       -9.29033745     -10.47991724      -5.80631979
H      -10.61563267      -9.59705620      -4.98732881
H       -7.89895680      -7.58958067      -4.50270766
O       -4.54506094       8.10110134       4.93046474
C       -4.41944623       6.96133198       5.37033496
C       -3.59606802       5.92757646       4.61056072
S       -4.49927404       4.34558807       4.47124386
C       -3.40557616       3.39851332       3.42393006
C       -3.97756568       2.57206468       2.44755732
C       -3.17401182       1.77165971       1.62997992
C       -1.79142348       1.79142348       1.79142348
C       -1.20847819       2.60243670       2.76174608
C       -2.01517931       3.39985487       3.57976487
N       -4.88399883       6.50016397       6.59234668
C       -5.61653814       7.20656509       7.56614758
C       -5.98220724       8.54562670       7.44746556
C       -6.71263558       9.17020251       8.46333066
C       -7.07991583       8.46246162       9.60932757
Br      -8.06604852       9.39242480      10.93914904
C       -6.72273724       7.11514971       9.75421294
C       -7.08523272       6.31284884      10.97243405
C       -5.98988248       6.50210028       8.72055401
H       -2.65543156       5.79036229       5.15219245
H       -3.38315961       6.31445647       3.60911736
H       -5.05772749       2.54021703       2.31518490
H       -3.63703181       1.13604176       0.87975826
H       -0.13003362       2.61383543       2.89893917
H       -1.53410984       3.99798771       4.34709919
H       -4.73000973       5.51395650       6.77385427
H       -5.72037181       9.13643256       6.57583487
H       -6.98894604      10.21539493       8.34445064
H       -6.75318855       5.27286051      10.88155276
H       -8.17072921       6.29358204      11.11226323
H       -6.60506021       6.73276127      11.86219620
H       -5.70748013       5.45645542       8.82730957
O        6.86992791      -3.60946137       7.09723774
C        6.58981292      -4.13711957       6.02418067
C        5.69395163      -3.41853066       5.02172291
S        4.39023360      -4.53320129       4.39267108
C        3.41535432      -3.41837406       3.39429117
C        2.02137035      -3.55907925       3.41673807
C        1.20905936      -2.74647771       2.62011438
C        1.79142348      -1.79142348       1.79142348
C        3.17558216      -1.64402579       1.75305302
C        3.98549329      -2.46022063       2.54908512
N        7.09500971      -5.33603703       5.54546275
C        7.99424832      -6.21511838       6.17988411
C        8.55218327      -5.98718974       7.43592648
C        9.43696141      -6.91535237       7.99385497
C        9.77546524      -8.07770021       7.29853958
Br      10.98823532      -9.27874496       8.13064209
C        9.22977876      -8.32969690       6.03262424
C        9.57011352      -9.56050985       5.23989223
C        8.33898696      -7.38577874       5.48777107
H        6.32906997      -3.06480904       4.20410728
H        5.23051020      -2.55944166       5.51678157
H        1.55230398      -4.30698759       4.05383785
H        0.12996939      -2.87249218       2.65037026
H        3.63601951      -0.90681693       1.09997177
H        5.06188807      -2.34259442       2.47471425
H        6.71745312      -5.64457700       4.65579038
H        8.31907109      -5.09923833       8.01432982
H        9.85565406      -6.71556993       8.97756762
H        9.01458115      -9.59661591       4.29640477
H        9.31146209     -10.46409195       5.80102043
H       10.63642374      -9.57155123       4.99204270
H        7.91288703      -7.57418413       4.50417397
C       -0.00445707       0.01189536      -1.78238275
H       -0.66409135       0.67374010      -2.43557963
H        0.65740317      -0.63156657      -2.45157240
C       -0.90989263      -0.90692880      -0.91072765
C        0.90977584       0.90977584      -0.90977584
C       -0.00465871       1.77757030       0.00794375
H       -0.66225468       2.44313916      -0.64384735
H        0.64322798       2.43503045       0.67728295
C       -1.78241447       0.00034974      -0.00472694
H       -2.45427497      -0.65498947       0.64260836
H       -2.43311707       0.67328779      -0.65473579
C       -0.91132561       0.90220522       0.91563759
C       -0.01476271      -0.02253852       1.78660255
H       -0.67934791      -0.69751639       2.42135241
H        0.63392994       0.61504881       2.47327442
C        0.01484550      -1.77751727      -0.01636693
H        0.67870853      -2.42144646      -0.68295456
H       -0.62264859      -2.45592969       0.64226336
C        1.78714474       0.01002794       0.00389507
H        2.44202412       0.67113390       0.66197326
H        2.45385902      -0.65136977      -0.64189061
C        0.91606151      -0.90478549       0.90901405
