150
Properties=species:S:1:pos:R:3 pbc="F F F"
N        4.81275306       5.66269779      -6.68325083
C        5.64795427       5.61883875      -5.89246683
C        6.66818250       5.56526335      -4.92649579
C        6.57799013       4.92248725      -3.74416436
C        5.41658961       4.20631748      -3.31285977
O        4.25380298       4.13460168      -4.04681975
C        3.35347429       3.37076240      -3.38540543
C        2.07133325       3.07200007      -3.83978000
C        1.29027512       2.26250993      -3.00909505
C        1.79328634       1.79328634      -1.79328634
C        3.08953026       2.11141949      -1.36191683
C        3.88900715       2.92499580      -2.18954430
C        5.20455684       3.46636851      -2.14863858
Cl       6.30553475       3.21550423      -0.87066244
S        8.16623754       6.34362069      -5.32406871
O        9.24347885       5.78193645      -4.52759635
O        8.32260021       6.44946239      -6.76258015
C        7.90343197       8.00261021      -4.71799508
C        8.38126465       8.35961957      -3.45196528
C        8.20432139       9.66689583      -2.99484447
C        7.56483137      10.60434528      -3.80669399
Br       7.33438833      12.37509630      -3.18591136
C        7.10331897      10.25112680      -5.07589386
C        7.27761920       8.94574773      -5.54007378
H        7.42903933       4.91168759      -3.06519414
H        1.70613188       3.44789612      -4.78904394
H        0.28237430       2.00220674      -3.32564543
H        3.47181733       1.73955646      -0.41596295
H        8.90236170       7.64116871      -2.82212434
H        8.57786778       9.94797323      -2.01290604
H        6.61814670      10.98715280      -5.71331550
H        6.93557755       8.68358580      -6.54003146
N       -6.56808390      -5.87593845      -4.71467935
C       -5.77665408      -5.83327516      -5.54933060
C       -4.80989418      -5.78116043      -6.56888704
C       -3.65433536      -5.08881271      -6.50149366
C       -3.25962079      -4.30489364      -5.37125242
O       -4.04149239      -4.14446571      -4.24926631
C       -3.38543615      -3.37070552      -3.35350045
C       -3.87252132      -3.01137693      -2.09921507
C       -3.04066541      -2.20405492      -1.31715977
C       -1.79328634      -1.79328634      -1.79328634
C       -1.32953681      -2.17137365      -3.06195612
C       -2.15637088      -2.98641900      -3.86075737
C       -2.08558496      -3.58311724      -5.15086173
Cl      -0.75945222      -3.42141870      -6.21083049
S       -5.11739491      -6.72629350      -7.99023852
O       -3.87040184      -6.99878386      -8.68382596
O       -6.02202288      -7.82066250      -7.69195736
C       -6.02547674      -5.58170493      -9.01685560
C       -5.34939149      -4.84638547      -9.99707254
C       -6.06751433      -3.97760554     -10.82094182
C       -7.44925983      -3.85984769     -10.66676312
Br      -8.41795383      -2.68755753     -11.78988464
C       -8.12461531      -4.60617888      -9.69954544
C       -7.41304880      -5.47778695      -8.87260496
H       -2.94984414      -5.12526719      -7.33080972
H       -4.84419124      -3.34578655      -1.75309415
H       -3.38041725      -1.90079240      -0.32901682
H       -0.35714382      -1.84846470      -3.42172821
H       -4.27551218      -4.95010663     -10.14003594
H       -5.54517199      -3.40770457     -11.58587048
H       -9.20388974      -4.52407964      -9.59064562
H       -7.94959764      -6.07366298      -8.13593420
N       -6.64340041       5.74449279       4.77080850
C       -5.79619024       5.81645125       5.54661835
C       -4.76129263       5.90435109       6.49429792
C       -3.56565070       5.28889546       6.39009558
C       -3.19249121       4.45337997       5.28989568
O       -4.03489618       4.15907540       4.24125283
C       -3.38652983       3.36845451       3.35465777
C       -3.93010745       2.88659847       2.16640741
C       -3.09665978       2.08277893       1.38244138
C       -1.79328634       1.79328634       1.79328634
C       -1.27331831       2.29327239       2.99627589
C       -2.10119548       3.10633617       3.79601561
C       -1.98669759       3.79876047       5.03410587
Cl      -0.58349422       3.80493135       6.00327585
S       -5.03966165       6.92738039       7.86688490
O       -3.77164849       7.33355720       8.44780596
O       -6.03967144       7.93326863       7.56170268
C       -5.79032547       5.80159851       9.03211329
C       -4.99760955       5.18710747      10.00813247
C       -5.59307712       4.33389351      10.93909106
C       -6.96985547       4.11179831      10.89421686
Br      -7.77227059       2.96136484      12.16176057
C       -7.76176507       4.73824194       9.93033261
C       -7.17323540       5.59360191       8.99660340
H       -2.81106740       5.43329541       7.16155824
H       -4.94476609       3.12826862       1.87003723
H       -3.47966680       1.68607019       0.44448949
H       -0.25785138       2.06408835       3.30539701
H       -3.92690954       5.37354189      10.06520333
H       -4.97997914       3.85790743      11.70086047
H       -8.83709696       4.57543528       9.90608276
H       -7.80044343       6.09652725       8.26222413
N        4.66192299      -6.05304972       6.44372898
C        5.59616034      -5.67606044       5.88703906
C        6.73736478      -5.21555452       5.20702235
C        6.72235427      -4.34734938       4.17493808
C        5.52804126      -3.77852920       3.62919640
O        4.26474015      -4.09251764       4.07796662
C        3.35153515      -3.37730331       3.38080365
C        1.97381992      -3.43234791       3.57694549
C        1.19541796      -2.61276105       2.75370108
C        1.79328634      -1.79328634       1.79328634
C        3.18466637      -1.75941633       1.61878389
C        3.98217251      -2.57880956       2.44256518
C        5.37100058      -2.84407697       2.60448639
Cl       6.60184642      -2.10871756       1.68113744
S        8.27391219      -5.77395700       5.78605775
O        9.32208754      -4.85604069       5.37488342
O        8.18205198      -6.17533884       7.17725193
C        8.51410445      -7.26951854       4.84041428
C        9.28618823      -7.23293436       3.67372690
C        9.50049612      -8.41054661       2.95501896
C        8.95385590      -9.61034296       3.41167178
Br       9.25326295     -11.20339009       2.43874296
C        8.19765346      -9.64826325       4.58442291
C        7.97995031      -8.47456711       5.30892329
H        7.65866309      -4.02461255       3.72264540
H        1.53552353      -4.07620487       4.33134354
H        0.11406589      -2.62241601       2.87374457
H        3.63960525      -1.11701767       0.87071381
H        9.73616855      -6.30595211       3.32353409
H       10.10309131      -8.38562429       2.05003144
H        7.78463210     -10.58714721       4.94683568
H        7.40846912      -8.51587609       6.23484960
C       -0.00445707       0.01189536      -1.78238275
H       -0.66409135       0.67374010      -2.43557963
H        0.65740317      -0.63156657      -2.45157240
C       -0.90989263      -0.90692880      -0.91072765
C        0.90977584       0.90977584      -0.90977584
C       -0.00465871       1.77757030       0.00794375
H       -0.66225468       2.44313916      -0.64384735
H        0.64322798       2.43503045       0.67728295
C       -1.78241447       0.00034974      -0.00472694
H       -2.45427497      -0.65498947       0.64260836
H       -2.43311707       0.67328779      -0.65473579
C       -0.91132561       0.90220522       0.91563759
C       -0.01476271      -0.02253852       1.78660255
H       -0.67934791      -0.69751639       2.42135241
H        0.63392994       0.61504881       2.47327442
C        0.01484550      -1.77751727      -0.01636693
H        0.67870853      -2.42144646      -0.68295456
H       -0.62264859      -2.45592969       0.64226336
C        1.78714474       0.01002794       0.00389507
H        2.44202412       0.67113390       0.66197326
H        2.45385902      -0.65136977      -0.64189061
C        0.91606151      -0.90478549       0.90901405
