129
Properties=species:S:1:pos:R:3 pbc="F F F"
C        0.00000000       0.00000000       0.00000000
N        3.90284904       4.75279377      -5.77334681
C        4.73805024       4.70893472      -4.98256280
C        5.75827848       4.65535932      -4.01659177
C        5.66808611       4.01258322      -2.83426034
C        4.50668558       3.29641345      -2.40295575
O        3.34389895       3.22469766      -3.13691572
C        2.44357026       2.46085837      -2.47550141
C        1.16142923       2.16209605      -2.92987597
C        0.38037110       1.35260590      -2.09919102
C        0.88338232       0.88338232      -0.88338232
C        2.17962624       1.20151547      -0.45201281
C        2.97910313       2.01509177      -1.27964028
C        4.29465282       2.55646449      -1.23873455
Cl       5.39563072       2.30560020       0.03924159
S        7.25633351       5.43371667      -4.41416468
O        8.33357483       4.87203243      -3.61769233
O        7.41269619       5.53955836      -5.85267613
C        6.99352795       7.09270619      -3.80809106
C        7.47136062       7.44971555      -2.54206125
C        7.29441736       8.75699181      -2.08494045
C        6.65492734       9.69444126      -2.89678997
Br       6.42448431      11.46519228      -2.27600733
C        6.19341494       9.34122278      -4.16598983
C        6.36771517       8.03584371      -4.63016976
H        6.51913530       4.00178356      -2.15529011
H        0.79622785       2.53799209      -3.87913991
H       -0.62752973       1.09230272      -2.41574140
H        2.56191330       0.82965244       0.49394108
H        7.99245768       6.73126469      -1.91222032
H        7.66796375       9.03806920      -1.10300201
H        5.70824267      10.07724877      -4.80341148
H        6.02567353       7.77368178      -5.63012743
N       -5.62503474      -5.01719531      -3.78675957
C       -4.85881901      -4.92953746      -4.64119130
C       -3.92285901      -4.82246025      -5.68491030
C       -2.78520756      -4.10003146      -5.62969064
C       -2.38046778      -3.33650361      -4.48908340
O       -3.13461073      -3.22880686      -3.34209475
C       -2.47503761      -2.46168519      -2.44320724
C       -2.93633825      -2.15057551      -1.16648749
C       -2.10521078      -1.34187425      -0.38508299
C       -0.88338232      -0.88338232      -0.88338232
C       -0.44529096      -1.21349876      -2.17436479
C       -1.27165977      -2.02931893      -2.97285648
C       -1.22086050      -2.58832924      -4.28066212
Cl       0.07006793      -2.36055550      -5.37150177
S       -4.24422381      -5.73667669      -7.12331437
O       -3.01022379      -5.95498955      -7.85808624
O       -5.10988517      -6.86375989      -6.83128562
C       -5.21170750      -4.59042609      -8.09219161
C       -4.58375726      -3.80990688      -9.06947328
C       -5.34819941      -2.93945667      -9.84869354
C       -6.72777074      -2.86480698      -9.65358085
Br      -7.75928709      -1.68994213     -10.71645471
C       -7.35505604      -3.65595386      -8.68961765
C       -6.59700168      -4.52949807      -7.90722889
H       -2.10355257      -4.09401803      -6.47863837
H       -3.88840633      -2.52147251      -0.80348102
H       -2.42523420      -1.07537955       0.62009935
H        0.50743041      -0.85370038      -2.55135469
H       -3.51188420      -3.87948340      -9.24457509
H       -4.86330896      -2.33442782     -10.61129819
H       -8.43268610      -3.60720367      -8.54901315
H       -7.09617177      -5.16010910      -7.17320187
N       -5.72067293       4.85879885       3.84951784
C       -4.88277756       4.90975043       4.63701978
C       -3.85925831       4.97198961       5.59898165
C       -2.67036770       4.34241372       5.50214825
C       -2.29368585       3.51631684       4.39605210
O       -3.12608252       3.24649927       3.33293056
C       -2.47644321       2.45896301       2.44452382
C       -3.01065516       1.99952963       1.24321646
C       -2.17747085       1.19506939       0.45962778
C       -0.88338232       0.88338232       0.88338232
C       -0.37273490       1.36106059       2.09935902
C       -1.20043618       2.17448836       2.89891064
C       -1.09317543       2.84939916       4.14727726
Cl       0.29725818       2.82485320       5.13439432
S       -4.14230159       5.98083544       6.98107783
O       -2.87684286       6.36297646       7.58348026
O       -5.12524797       7.00349228       6.67619042
C       -4.92247049       4.85004093       8.12181378
C       -4.15048585       4.21279474       9.09985683
C       -4.76893322       3.35551257      10.01190382
C       -6.14775079       3.15195070       9.94645707
Br      -6.98131075       1.99586772      11.18850545
C       -6.91893362       3.80098109       8.98071285
C       -6.30735934       4.66053480       8.06583449
H       -1.92409637       4.46705612       6.28505649
H       -4.01818158       2.25817365       0.93700463
H       -2.55330284       0.81546321      -0.48825165
H        0.63559414       1.11472625       2.41849255
H       -3.07831236       4.38452888       9.17310144
H       -4.17196834       2.86183877      10.77522787
H       -7.99586183       3.65250933       8.94053177
H       -6.91844230       5.18097509       7.33006535
N        4.09879161      -4.45932832       5.87086969
C        4.78404078      -4.67414378       4.97136321
C        5.62109723      -4.93654857       3.87258378
C        5.42468324      -4.46655429       2.62369214
C        4.32327267      -3.63294859       2.24983352
O        3.32587125      -3.25781208       3.12182902
C        2.44651138      -2.45577788       2.47764079
C        1.31803999      -1.87962213       3.05573913
C        0.53263798      -1.07806781       2.22146223
C        0.88338232      -0.88338232       0.88338232
C        2.02671143      -1.47748107       0.32896202
C        2.82894714      -2.28660748       1.15828056
C        4.02533532      -3.04481568       1.01970086
Cl       4.91646857      -3.17408736      -0.42856659
S        7.03579067      -5.89315607       4.17526812
O        8.03119445      -5.64549775       3.14660739
O        7.41846894      -5.81396322       5.57249851
C        6.43508527      -7.55308637       3.90615355
C        6.63264746      -8.16658992       2.66390004
C        6.19216763      -9.47678251       2.46739948
C        5.57138706     -10.16316383       3.51160767
Br       4.98346678     -11.93967398       3.24254316
C        5.38972003      -9.55568124       4.75522629
C        5.82855404      -8.24586030       4.95931430
H        6.13966893      -4.70004511       1.83649494
H        1.06963589      -2.04562711       4.09809687
H       -0.35770472      -0.60625687       2.63196224
H        2.29174534      -1.31784340      -0.71196407
H        7.13731009      -7.64696057       1.85167202
H        6.34765283      -9.95719315       1.50418898
H        4.91880795     -10.09747198       5.57262299
H        5.70409991      -7.78664544       5.93873739
