137
Properties=species:S:1:pos:R:3 pbc="F F F"
C        0.00000000       0.00000000       0.00000000
N        3.90284904       4.75279377      -5.77334681
C        4.73805024       4.70893472      -4.98256280
C        5.75827848       4.65535932      -4.01659177
C        5.66808611       4.01258322      -2.83426034
C        4.50668558       3.29641345      -2.40295575
O        3.34389895       3.22469766      -3.13691572
C        2.44357026       2.46085837      -2.47550141
C        1.16142923       2.16209605      -2.92987597
C        0.38037110       1.35260590      -2.09919102
C        0.88338232       0.88338232      -0.88338232
C        2.17962624       1.20151547      -0.45201281
C        2.97910313       2.01509177      -1.27964028
C        4.29465282       2.55646449      -1.23873455
Cl       5.39563072       2.30560020       0.03924159
S        7.25633351       5.43371667      -4.41416468
O        8.33357483       4.87203243      -3.61769233
O        7.41269619       5.53955836      -5.85267613
C        6.99352795       7.09270619      -3.80809106
C        7.47136062       7.44971555      -2.54206125
C        7.29441736       8.75699181      -2.08494045
C        6.65492734       9.69444126      -2.89678997
C        6.19341494       9.34122278      -4.16598983
C        6.36771517       8.03584371      -4.63016976
H        6.51913530       4.00178356      -2.15529011
H        0.79622785       2.53799209      -3.87913991
H       -0.62752973       1.09230272      -2.41574140
H        2.56191330       0.82965244       0.49394108
H        7.99245768       6.73126469      -1.91222032
H        7.66796375       9.03806920      -1.10300201
H        5.70824267      10.07724877      -4.80341148
H        6.02567353       7.77368178      -5.63012743
C        6.47939921      11.04321977      -2.42394073
C        6.33239441      12.17282177      -2.02792949
Br       6.09470007      13.99929267      -1.38761281
N       -5.56637404      -5.10037999      -3.76223559
C       -4.84551620      -4.93908824      -4.64494333
C       -3.96496249      -4.74206458      -5.72320250
C       -2.85929840      -3.97053477      -5.68509650
C       -2.43622212      -3.24054653      -4.52928614
O       -3.14009133      -3.21936460      -3.34605640
C       -2.47414788      -2.46313145      -2.44265070
C       -2.88879800      -2.23108162      -1.13352162
C       -2.05899053      -1.42011787      -0.35305963
C       -0.88338232      -0.88338232      -0.88338232
C       -0.49171143      -1.13484634      -2.20659674
C       -1.31724996      -1.95193076      -3.00465445
C       -1.30264903      -2.44912770      -4.33807513
Cl      -0.07544282      -2.11300134      -5.47354518
S       -4.31201331      -5.60526779      -7.18693377
O       -3.10512906      -5.73282165      -7.98534887
O       -5.11202370      -6.78339628      -6.90951070
C       -5.37375576      -4.46335800      -8.05721144
C       -4.82748161      -3.61162308      -9.02403273
C       -5.66546836      -2.74391980      -9.72696146
C       -7.03639146      -2.74247146      -9.46729564
C       -7.58214971      -3.60418739      -8.51429046
C       -6.75025177      -4.47541739      -7.80805948
H       -2.21893105      -3.89490615      -6.56237178
H       -3.80542205      -2.66179251      -0.74614530
H       -2.34333561      -1.21389966       0.67672087
H        0.42540686      -0.71455734      -2.60847418
H       -3.76290850      -3.62325336      -9.24978083
H       -5.24412192      -2.08354942     -10.48136363
H       -8.65314891      -3.61207130      -8.32368272
H       -7.18604112      -5.16070925      -7.08273237
C       -7.89810212      -1.85001489     -10.19844270
C       -8.61978479      -1.10258252     -10.81077836
Br      -9.78668464       0.10595242     -11.80087334
N       -5.76778730       4.76489914       3.89630317
C       -4.89616202       4.89706536       4.63632039
C       -3.83144048       5.05851113       5.54027796
C       -2.61794316       4.48359619       5.41339031
C       -2.25380345       3.62118038       4.33107095
O       -3.12216494       3.25681629       3.32653111
C       -2.47710430       2.45736819       2.44545755
C       -3.04504273       1.91132984       1.29702867
C       -2.21091152       1.10934366       0.51191284
C       -0.88338232       0.88338232       0.88338232
C       -0.33916964       1.44722225       2.04676263
C       -1.16751258       2.25924068       2.84708193
C       -1.03421728       3.00178413       4.05385045
Cl       0.40218037       3.09586974       4.96829997
S       -4.09808301       6.12195867       6.88417318
O       -2.82601015       6.59585566       7.40143377
O       -5.14594946       7.07839791       6.58058331
C       -4.76253695       5.01447827       8.11730998
C       -3.91202088       4.46674044       9.08437610
C       -4.44036817       3.62824046      10.06774098
C       -5.80846526       3.35450631      10.08318700
C       -6.65818602       3.91466928       9.12777225
C       -6.13694942       4.75495415       8.14182507
H       -1.84171927       4.68455845       6.14993126
H       -4.07826746       2.10440814       1.03068426
H       -2.61259219       0.66367623      -0.39575402
H        0.69485463       1.26712528       2.32535402
H       -2.84778244       4.69415463       9.09400561
H       -3.78228718       3.20414474      10.82260304
H       -7.72674712       3.71192435       9.15023145
H       -6.80914178       5.20647441       7.41386655
C       -6.35038767       2.49370250      11.10246955
C       -6.80424768       1.77277931      11.95611868
Br      -7.53810094       0.60710748      13.33639713
N        3.93814071      -4.69094047       5.79990843
C        4.74723045      -4.70100314       4.98131418
C        5.73556258      -4.71329506       3.98137193
C        5.62659858      -4.10669545       2.78163564
C        4.47527726      -3.36625843       2.36451909
O        3.34081278      -3.23156975       3.13312981
C        2.44408222      -2.45979943       2.47604839
C        1.18837630      -2.10340101       2.96162394
C        0.40657340      -1.29555837       2.13003625
C        0.88338232      -0.88338232       0.88338232
C        2.15331926      -1.25885585       0.42097941
C        2.95328468      -2.07149984       1.24905066
C        4.24838115      -2.65790081       1.18356990
Cl       5.31329563      -2.48600069      -0.13730698
S        7.22000784      -5.52828406       4.35592296
O        8.28754556      -5.02942392       3.50633011
O        7.42118170      -5.59242286       5.79132612
C        6.88305454      -7.19634394       3.81492671
C        7.30611216      -7.61028185       2.54674342
C        7.07139663      -8.92505400       2.13989899
C        6.42940907      -9.81350371       3.00324578
C        6.02263708      -9.40379872       4.27419175
C        6.25488835      -8.09060279       4.68823750
H        6.45420660      -4.14667310       2.07532928
H        0.84329186      -2.43567268       3.93439533
H       -0.58108601      -0.99129845       2.47030196
H        2.51545073      -0.93108018      -0.54890624
H        7.82883177      -6.93067658       1.87643433
H        7.40231990      -9.25037973       1.15633534
H        5.53548563     -10.10192240       4.95149489
H        5.95542583      -7.78464555       5.68941136
C        6.19422591     -11.17029246       2.58204134
C        5.99726002     -12.30660303       2.22928262
Br       5.67878282     -14.14392112       1.65890161
