185
Properties=species:S:1:pos:R:3 pbc="F F F"
C        0.00000000       0.00000000       0.00000000
C       -0.12999708       2.95365447      -9.64945861
C       -0.25683031       2.91100714      -8.13914589
O        0.92816478       3.47941133      -7.56027713
C        0.79335600       4.65223100      -6.88120214
O       -0.27613633       5.22761094      -6.69797285
C        2.13943863       5.13958740      -6.28292159
C        2.25078877       6.67111636      -6.29854493
C        2.07795129       4.70059703      -4.84221505
C        3.06826515       3.88372043      -4.48870675
N        3.38537324       3.26136888      -3.31004073
C        2.51429491       2.47054698      -2.52786143
C        2.97231770       2.01360142      -1.28248900
C        2.16403696       1.22026128      -0.46235451
C        0.88126868       0.88126868      -0.88126868
C        0.39848846       1.33898475      -2.10317198
C        1.20996707       2.13679420      -2.91624184
C        3.94373111       3.74453862      -5.68818438
O        4.96929266       3.08164619      -5.63970069
N        3.35772196       4.46220328      -6.73764643
C        3.85334931       4.50469246      -8.08091676
C        5.03060431       3.83336588      -8.44951600
C        5.52627608       3.87146573      -9.76040613
C        4.84960163       4.59026817     -10.73441562
C        3.67624465       5.25627538     -10.40920125
C        3.18199702       5.20465972      -9.09768323
H       -1.01086660       2.51449627     -10.12646968
H        0.75827529       2.40321815      -9.97678353
H       -0.01456318       3.98431894     -10.00010216
H       -0.32035554       1.87252294      -7.79911448
H       -1.17308695       3.41884098      -7.82077865
H        3.21255186       7.00896035      -5.89466058
H        1.45657684       7.13647309      -5.70115724
H        2.15428697       7.08812862      -7.30426722
H        1.29604280       5.01978029      -4.16478425
H        4.31216738       2.82878134      -3.36784836
H        3.97026713       2.27852251      -0.93968217
H        2.54620478       0.87453719       0.49413704
H       -0.60106875       1.07732869      -2.43968933
H        0.81000771       2.45809380      -3.87272304
H        5.60819606       3.25207147      -7.73779188
H        6.44084330       3.33377960      -9.99769907
H        3.13102266       5.81669801     -11.16451699
H        2.24692985       5.72355890      -8.92461526
C        5.36004438       4.64182972     -12.07992282
C        5.78754017       4.68501252     -13.20678509
Br       6.47876472       4.75483545     -15.02882609
C       -9.21242680      -4.04572977       0.78504056
C       -8.03798708      -3.16378746       0.40845181
O       -7.50613198      -3.61471171      -0.84700954
C       -7.63032748      -2.78028199      -1.91617966
O       -8.12649913      -1.65794349      -1.86500485
C       -6.98959272      -3.37372493      -3.19862997
C       -7.77323264      -2.98609856      -4.46111885
C       -5.64074324      -2.70519791      -3.27482223
C       -4.61878167      -3.55868320      -3.26322745
N       -3.26061686      -3.38487151      -3.31129447
C       -2.50196557      -2.53525676      -2.47548100
C       -1.13374329      -2.38529408      -2.74937075
C       -0.32397424      -1.56605229      -1.95662621
C       -0.88126868      -0.88126868      -0.88126868
C       -2.23919296      -0.99908924      -0.60236299
C       -3.04472953      -1.81572323      -1.40255035
C       -5.21568233      -4.92524856      -3.23552321
O       -4.50441978      -5.91853855      -3.26768120
N       -6.60699415      -4.78868324      -3.16189428
C       -7.53302434      -5.87379135      -3.03214283
C       -7.09859824      -7.20910159      -3.00578636
C       -7.99674636      -8.27858024      -2.88282134
C       -9.35774189      -8.03036409      -2.78617944
C       -9.82237802      -6.72265638      -2.79668688
C       -8.91616730      -5.65824013      -2.90993255
H       -9.63588860      -3.74038295       1.74617219
H       -8.90035921      -5.09303697       0.85511921
H       -9.99545049      -3.99594274       0.02153531
H       -7.24282593      -3.26260247       1.15414651
H       -8.34352979      -2.11256626       0.38956338
H       -7.32858651      -3.42580000      -5.36178629
H       -7.79763717      -1.89769220      -4.59887781
H       -8.81709062      -3.30781560      -4.42177658
H       -5.52111346      -1.63052220      -3.32897168
H       -2.78571774      -4.28343622      -3.43964312
H       -0.68747410      -2.90875167      -3.59224603
H        0.73371678      -1.47321012      -2.18711159
H       -2.68272519      -0.47001946       0.23679539
H       -4.09517034      -1.90223221      -1.14342200
H       -6.04832161      -7.47379784      -3.07593997
H       -7.61202806      -9.29520453      -2.86508939
H      -10.88584532      -6.51305566      -2.71333669
H       -9.34815842      -4.66518966      -2.88175592
C      -10.28563544      -9.12547790      -2.67068357
C      -11.06274630     -10.04263572      -2.57395577
Br     -12.31926882     -11.52560233      -2.41755511
C       -4.40925988       9.02685374      -0.96299762
C       -4.14958614       7.53476143      -0.89102484
O       -4.45674025       7.07629741       0.43481557
C       -5.51698514       6.23330876       0.57649523
O       -6.19514377       5.81037152      -0.35606782
C       -5.72017764       5.79178712       2.04998286
C       -7.20651017       5.61881775       2.39512214
C       -5.07467525       4.43118414       2.11490399
C       -4.08730037       4.34893579       3.00445617
N       -3.25229531       3.32829371       3.37619382
C       -2.47359105       2.53344438       2.50566790
C       -1.77116944       1.44723860       3.05000007
C       -0.97566640       0.62535152       2.24563483
C       -0.88126868       0.88126868       0.88126868
C       -1.58411649       1.94055114       0.31597756
C       -2.38246517       2.75542190       1.12511604
C       -4.02017632       5.67769915       3.67857864
O       -3.22622159       5.87878046       4.58563748
N       -4.96445569       6.51726670       3.07584928
C       -5.14848315       7.90327609       3.38719928
C       -4.39079816       8.53727187       4.38541616
C       -4.56548656       9.89218810       4.70047328
C       -5.51131147      10.64365544       4.01931851
C       -6.27001680      10.05343924       3.01826524
C       -6.08181216       8.69994434       2.70258348
H       -4.17192393       9.41559768      -1.95742227
H       -3.80225556       9.55927093      -0.22324953
H       -5.45698690       9.24962388      -0.73675286
H       -3.08888932       7.33150216      -1.06910959
H       -4.72004701       7.01247588      -1.66599023
H       -7.34521159       5.32782462       3.44313658
H       -7.67561021       4.84815409       1.77044287
H       -7.78403965       6.53208986       2.23055330
H       -5.38661694       3.60372075       1.49026965
H       -2.71352497       3.58711829       4.20815382
H       -1.84314853       1.23143794       4.11388534
H       -0.43721691      -0.20486808       2.69425610
H       -1.51457012       2.14950812      -0.74812898
H       -2.89939795       3.58614210       0.65528451
H       -3.63365145       8.00862059       4.95578737
H       -3.95342430      10.33887368       5.48002400
H       -7.00917362      10.63258947       2.47047457
H       -6.68823169       8.31544591       1.89142641
C       -5.70257698      12.03294102       4.34627892
C       -5.86276186      13.19646768       4.62010825
Br      -6.12176724      15.07779189       5.06286713
C        7.17837324       1.61331123       6.90805400
C        5.86408813       1.29366780       6.22290239
O        5.74873895      -0.13139558       6.08771870
C        4.77073621      -0.75174838       6.80430454
O        3.96069683      -0.16868183       7.52006881
C        4.73623358      -2.28105762       6.54465642
C        4.34811356      -3.06640352       7.80593298
C        3.62709648      -2.45486125       5.53880565
C        4.02133790      -3.01994715       4.39940728
N        3.35865491      -3.35121576       3.24691217
C        2.53860348      -2.49040003       2.48369982
C        1.83513375      -3.03497835       1.39829602
C        1.01248341      -2.23698852       0.59718081
C        0.88126868      -0.88126868       0.88126868
C        1.55353156      -0.32316029       1.96395334
C        2.37038049      -1.12795407       2.76466855
C        5.46846165      -3.33845545       4.56953701
O        6.08962555      -3.91318015       3.68783384
N        5.87217671      -2.86267515       5.82271981
C        7.21382339      -2.90216357       6.32297157
C        8.25694776      -3.47746860       5.57906983
C        9.57269888      -3.52455235       6.06089671
C        9.87144610      -2.99536082       7.30747850
C        8.86812229      -2.40811204       8.06548695
C        7.55647893      -2.35626473       7.57159632
H        7.30827674       2.69398039       7.01580299
H        8.01974411       1.21370744       6.33224029
H        7.22142648       1.15112343       7.89955487
H        5.85586280       1.71892067       5.21433976
H        5.03009043       1.73880251       6.77524474
H        4.34633738      -4.14740849       7.62242693
H        3.34766620      -2.78684074       8.15970023
H        5.02635729      -2.87818239       8.64214312
H        2.60810759      -2.14278987       5.72970988
H        3.95628011      -3.91629846       2.63621851
H        1.92265414      -4.09521381       1.17060385
H        0.48446882      -2.68315920      -0.24102309
H        1.45903137       0.73508596       2.19200386
H        2.89750310      -0.65572950       3.58759195
H        8.09298857      -3.90853243       4.59653841
H       10.34660524      -3.97861468       5.44710206
H        9.08959056      -1.98189816       9.04074893
H        6.83276613      -1.85748316       8.20485473
C       11.21903224      -3.05076461       7.81200006
C       12.34763564      -3.09716528       8.23453686
Br      14.17249188      -3.17219124       8.91774314
