166
Properties=species:S:1:pos:R:3 pbc="F F F"
C        1.79210457       1.79210457      -1.79210457
C        2.49608435       2.85217577      -1.22209308
C        3.30111756       3.65856050      -2.02649637
C        3.39970603       3.40192478      -3.39543779
C        2.69512709       2.33593052      -3.96700160
C        1.88362761       1.52999710      -3.15932841
C        2.80247996       2.08000512      -5.40487030
C        3.66208065       1.23696843      -6.01359765
C        4.64601932       0.40519456      -5.29800881
O        4.71515629       0.27235179      -4.08394252
N        5.48629520      -0.27885258      -6.11856781
C        5.11282626      -0.73436427      -7.34974027
O        5.50608805      -1.85561643      -7.67089603
N        4.25659185       0.08111527      -8.08896623
C        4.05571727      -0.19743005      -9.50046729
C        5.03191044      -0.86072764     -10.26157051
C        4.84680242      -1.11944914     -11.62450965
C        3.67833673      -0.71518627     -12.26624733
Br       3.51227639      -1.09808662     -14.11816828
C        2.67873852      -0.05068815     -11.54899031
C        1.40128876       0.41186099     -12.19372439
C        2.88068105       0.19158611     -10.17306662
C        3.61472040       1.17853387      -7.50450627
O        3.06941695       2.09535385      -8.12052049
H        2.42725904       3.05509736      -0.15650853
H        3.85488229       4.48403188      -1.58697894
H        4.03335436       4.03741188      -4.00989889
H        1.33434709       0.69807817      -3.59094209
H        2.10492734       2.67459334      -5.99293007
H        6.07402713      -0.93314110      -5.61756759
H        5.97976648      -1.17244177      -9.82978598
H        5.63154175      -1.63395109     -12.17499265
H        0.75331529       0.93067177     -11.47852754
H        0.83838746      -0.44202569     -12.58466419
H        1.61494967       1.11608325     -13.00462955
H        2.07346892       0.67998049      -9.63036265
C       -1.79210457      -1.79210457      -1.79210457
C       -1.43429457      -2.01480913      -3.12124951
C       -2.23917017      -2.81933009      -3.92767418
C       -3.39646932      -3.39785427      -3.40274501
C       -3.75399726      -3.17646529      -2.06759665
C       -2.94776067      -2.36486291      -1.26032954
C       -4.97294124      -3.78443704      -1.52997711
C       -5.06938280      -4.96292735      -0.88033659
C       -3.92090660      -5.83936690      -0.58894919
O       -2.74534735      -5.55457182      -0.77153144
N       -4.26660300      -7.02917139      -0.03023604
C       -5.34503840      -7.17637423       0.79321037
O       -5.19854682      -7.90050162       1.77768079
N       -6.48038781      -6.42871411       0.48242857
C       -7.73990569      -6.74990845       1.13105962
C       -8.00562526      -8.04144041       1.61431236
C       -9.22294440      -8.35734883       2.22843031
C      -10.21285924      -7.38767255       2.37113400
Br     -11.83717414      -7.90292668       3.20774277
C       -9.99334968      -6.08801325       1.90432225
C      -11.02967159      -5.00532072       2.02811816
C       -8.75500564      -5.78738553       1.29705740
C       -6.43499240      -5.39893424      -0.46383390
O       -7.41600899      -4.87542121      -0.99386109
H       -0.53259177      -1.57103820      -3.53523496
H       -1.96324651      -2.99924534      -4.96340126
H       -4.01302484      -4.02507660      -4.04256369
H       -3.21334506      -2.18811088      -0.22191141
H       -5.86303094      -3.18718728      -1.72223253
H       -3.46364409      -7.56643973       0.27163020
H       -7.28943815      -8.85200510       1.50433256
H       -9.38590616      -9.37204148       2.58536433
H      -10.68447534      -4.06407502       1.58603575
H      -11.25411600      -4.80844023       3.08153027
H      -11.94659636      -5.29117981       1.50211370
H       -8.59629080      -4.76052338       0.97300213
C       -1.79210457       1.79210457       1.79210457
C       -2.10116683       1.38103014       3.08815624
C       -2.90692955       2.18513984       3.89410505
C       -3.39918994       3.39564549       3.40223317
C       -3.08648002       3.80949913       2.10208005
C       -2.28138709       2.99924758       1.29231844
C       -3.61304779       5.07865215       1.59565546
C       -3.00017448       6.27998598       1.63248626
C       -1.65505620       6.50174088       2.19242561
O       -0.88533523       5.62527829       2.56083709
N       -1.28563245       7.80915117       2.23122682
C       -1.69789409       8.72410137       1.30620680
O       -0.86141318       9.54017488       0.91977959
N       -3.00228286       8.59377084       0.83061965
C       -3.59467679       9.68601595       0.07806177
C       -3.16703731      11.01210052       0.25361547
C       -3.74430304      12.06821751      -0.46065763
C       -4.77237373      11.82594521      -1.36892114
Br      -5.50501611      13.31617755      -2.28883561
C       -5.23160194      10.52157424      -1.57613550
C       -6.34162438      10.20545500      -2.54020523
C       -4.62918579       9.46936980      -0.85322181
C       -3.75920892       7.44635595       1.09219567
O       -4.97958839       7.35175989       0.95394301
H       -1.71796785       0.44196727       3.47892981
H       -3.14813141       1.87141531       4.90634639
H       -4.02411786       4.01361618       4.04293109
H       -2.02950475       3.31117148       0.28269112
H       -4.61330735       4.98341664       1.17572677
H       -0.31930822       7.93359070       2.50555470
H       -2.39288172      11.27335049       0.97087848
H       -3.38274296      13.08003598      -0.29019563
H       -6.57599065       9.13515493      -2.54863097
H       -6.05521925      10.48511716      -3.55931046
H       -7.25770292      10.73366773      -2.25570818
H       -4.98144347       8.46002985      -1.05766127
C        1.79210457      -1.79210457       1.79210457
C        1.58697358      -3.17115057       1.81222906
C        2.39116781      -3.97735255       2.61765408
C        3.39632038      -3.40269633       3.39805188
C        3.60395223      -2.01855648       3.37555049
C        2.79298459      -1.20974308       2.57022544
C        4.65789787      -1.42700946       4.20244806
C        5.92585170      -1.16026181       3.82653322
C        6.45602087      -1.41751685       2.47568497
O        5.79523431      -1.76834557       1.50787073
N        7.78911236      -1.18152038       2.35537770
C        8.43928046      -0.21810061       3.07082118
O        9.28957507       0.44058378       2.47237635
N        8.01990330      -0.02074116       4.38602889
C        8.84601999       0.76954118       5.28227571
C       10.23186455       0.88669629       5.08758505
C       11.03245666       1.63701581       5.95642207
C       10.46699695       2.28807254       7.05047338
Br      11.62591318       3.27679054       8.18323542
C        9.09135652       2.19912647       7.28481063
C        8.43102832       2.87744942       8.45329524
C        8.30010918       1.44573413       6.39095872
C        6.83739811      -0.59535474       4.86500769
O        6.52880146      -0.70388935       6.05260047
H        0.80913978      -3.62562092       1.20410422
H        2.23809659      -5.05323227       2.63456424
H        4.01744454      -4.04400821       4.01921238
H        2.94646937      -0.13468672       2.54221126
H        4.33055779      -1.22136449       5.22052847
H        8.11228427      -1.24771471       1.39845464
H       10.74032648       0.37645658       4.27324080
H       12.10220931       1.69757754       5.76795154
H        7.35471550       2.67432253       8.48212163
H        8.55685847       3.96309226       8.38725974
H        8.85302773       2.51320459       9.39583933
H        7.22787389       1.42025061       6.57618877
C       -0.00445707       0.01189536      -1.78238275
H       -0.66409135       0.67374010      -2.43557963
H        0.65740317      -0.63156657      -2.45157240
C       -0.90989263      -0.90692880      -0.91072765
C        0.90977584       0.90977584      -0.90977584
C       -0.00465871       1.77757030       0.00794375
H       -0.66225468       2.44313916      -0.64384735
H        0.64322798       2.43503045       0.67728295
C       -1.78241447       0.00034974      -0.00472694
H       -2.45427497      -0.65498947       0.64260836
H       -2.43311707       0.67328779      -0.65473579
C       -0.91132561       0.90220522       0.91563759
C       -0.01476271      -0.02253852       1.78660255
H       -0.67934791      -0.69751639       2.42135241
H        0.63392994       0.61504881       2.47327442
C        0.01484550      -1.77751727      -0.01636693
H        0.67870853      -2.42144646      -0.68295456
H       -0.62264859      -2.45592969       0.64226336
C        1.78714474       0.01002794       0.00389507
H        2.44202412       0.67113390       0.66197326
H        2.45385902      -0.65136977      -0.64189061
C        0.91606151      -0.90478549       0.90901405
