134
Properties=species:S:1:pos:R:3 pbc="F F F"
C        1.79319707       1.79319707      -1.79319707
C        3.08312003       1.37954162      -2.11136600
C        3.88213967       2.19113168      -2.91987853
C        3.40966732       3.41420858      -3.41729762
C        4.23463189       4.28465789      -4.27416192
H        3.78697274       5.21888103      -4.60010882
N        5.47698075       3.90136612      -4.61627189
N        6.09220648       4.89618626      -5.45839607
C        7.33532251       4.48976913      -5.78162866
H        7.76737721       3.55422841      -5.43854892
C        8.16886139       5.34474304      -6.64906401
C        9.46719770       4.92747874      -6.96386422
C       10.27883969       5.71535741      -7.78222045
Br      12.03451064       5.13739699      -8.19744678
C        9.81548708       6.92656713      -8.30079112
C        8.52422900       7.35457048      -7.99670991
C        7.71739277       6.56659086      -7.17949592
O        6.45074999       7.01910833      -6.89990695
C        2.10889043       3.80997873      -3.08222901
C        1.29962974       3.00530675      -2.27340413
H        3.48798546       0.44176586      -1.74974333
H        4.89479586       1.88823838      -3.18318232
H        9.82475976       3.98615750      -6.55943972
H       10.44554008       7.53831912      -8.93585551
H        8.13458778       8.28878521      -8.38277512
H        6.09789277       6.27508503      -6.29853103
H        1.73354379       4.75566645      -3.46248281
H        0.29644065       3.33717278      -2.03208352
C       -1.79319707      -1.79319707      -1.79319707
C       -2.96187550      -1.27217416      -2.33997799
C       -3.76150185      -2.08488600      -3.14676203
C       -3.40936569      -3.41520990      -3.41659793
C       -4.23682922      -4.28937074      -4.26725174
H       -3.88933514      -5.30860838      -4.40801906
N       -5.36012585      -3.80746274      -4.82703017
N       -6.00108180      -4.82767816      -5.61802886
C       -7.12419097      -4.32028541      -6.16224392
H       -7.45829725      -3.29925741      -6.00259988
C       -7.95656886      -5.17968494      -7.02641465
C       -9.13341553      -4.65359676      -7.57152837
C       -9.94085333      -5.44285377      -8.39271046
Br     -11.53159109      -4.71649796      -9.12126536
C       -9.59336740      -6.76339360      -8.68608434
C       -8.42366701      -7.30067185      -8.15117054
C       -7.62079295      -6.51088196      -7.33180464
O       -6.47570876      -7.07265868      -6.82139782
C       -2.22958519      -3.91761563      -2.85389736
C       -1.42092155      -3.11292329      -2.04449577
H       -3.27126132      -0.24969095      -2.15854238
H       -4.68039801      -1.69923138      -3.58658718
H       -9.40114868      -3.62742301      -7.34178530
H      -10.22020236      -7.37618446      -9.32332788
H       -8.12569711      -8.32123848      -8.35921252
H       -6.09815986      -6.30037969      -6.27296928
H       -1.94800221      -4.94685296      -3.05683788
H       -0.51270842      -3.52897716      -1.62401135
C       -1.79319707       1.79319707       1.79319707
C       -1.31039801       3.01690516       2.24672448
C       -2.12407984       3.81792797       3.05114206
C       -3.41782498       3.41313054       3.41021800
C       -4.29417522       4.24374608       4.25553039
H       -5.27451129       3.84024664       4.49120466
N       -3.86332916       5.44055494       4.69073466
N       -4.88061814       6.07729779       5.48887289
C       -4.42158033       7.27002201       5.91511797
H       -3.43391604       7.65216096       5.67407754
C       -5.29218084       8.11852560       6.75196201
C       -4.80193156       9.34696837       7.20964073
C       -5.60264883      10.17090515       8.00286357
Br      -4.92364208      11.82980984       8.61590248
C       -6.90002079       9.79006517       8.35275937
C       -7.40221498       8.56985541       7.90343901
C       -6.60060881       7.74996981       7.11290093
O       -7.12726851       6.55432879       6.68816796
C       -3.88106761       2.17696817       2.94306240
C       -3.07509618       1.36646307       2.13678137
H       -0.31770614       3.36918060       1.99260792
H       -1.76851548       4.78014411       3.41755698
H       -3.79353808       9.64029921       6.93651970
H       -7.52155165      10.42948283       8.96868023
H       -8.40415799       8.24507367       8.15691644
H       -6.35007863       6.16970983       6.15172037
H       -4.88177325       1.85430903       3.21561078
H       -3.46137131       0.41537845       1.78894718
C        1.79319707      -1.79319707       1.79319707
C        1.34555074      -3.05448746       2.17398945
C        2.15906831      -3.85513077       2.97895079
C        3.41793772      -3.41280860       3.41042720
C        4.29359330      -4.24215872       4.25769968
H        5.24481478      -3.80881829       4.55232952
N        3.89740011      -5.47363995       4.62357871
N        4.90728110      -6.10155233       5.43795538
C        4.48314275      -7.32974071       5.79383685
H        3.52390182      -7.74183130       5.49442142
C        5.35418860      -8.17681795       6.63166190
C        4.89913840      -9.44332492       7.01607734
C        5.70117630     -10.26689409       7.80834717
Br       5.06994239     -11.97768958       8.32172243
C        6.96508881      -9.84793621       8.22982032
C        7.43207198      -8.58951317       7.85392425
C        6.62921100      -7.77014148       7.06412707
O        7.12065910      -6.53629230       6.71281387
C        3.84608935      -2.13930858       3.01570024
C        3.03993387      -1.32879824       2.20960850
H        0.38053840      -3.43640990       1.86254636
H        1.83069336      -4.84632223       3.28920097
H        3.91668348      -9.76623763       6.68743588
H        7.58763020     -10.48707776       8.84500674
H        8.40753962      -8.23462175       8.16398673
H        6.35050074      -6.16141994       6.15958814
H        4.81962018      -1.78741586       3.34465701
H        3.39867403      -0.34824684       1.91877607
C       -0.00445707       0.01189536      -1.78238275
H       -0.66409135       0.67374010      -2.43557963
H        0.65740317      -0.63156657      -2.45157240
C       -0.90989263      -0.90692880      -0.91072765
C        0.90977584       0.90977584      -0.90977584
C       -0.00465871       1.77757030       0.00794375
H       -0.66225468       2.44313916      -0.64384735
H        0.64322798       2.43503045       0.67728295
C       -1.78241447       0.00034974      -0.00472694
H       -2.45427497      -0.65498947       0.64260836
H       -2.43311707       0.67328779      -0.65473579
C       -0.91132561       0.90220522       0.91563759
C       -0.01476271      -0.02253852       1.78660255
H       -0.67934791      -0.69751639       2.42135241
H        0.63392994       0.61504881       2.47327442
C        0.01484550      -1.77751727      -0.01636693
H        0.67870853      -2.42144646      -0.68295456
H       -0.62264859      -2.45592969       0.64226336
C        1.78714474       0.01002794       0.00389507
H        2.44202412       0.67113390       0.66197326
H        2.45385902      -0.65136977      -0.64189061
C        0.91606151      -0.90478549       0.90901405
