197
Properties=species:S:1:pos:R:3 pbc="F F F"
C        0.00000000       0.00000000       0.00000000
C        5.12419691      -1.78445294      -8.44303439
O        4.03328618      -0.95529753      -8.06299783
C        4.27654563      -0.02348379      -7.09475399
C        5.52168171       0.31403873      -6.56873999
C        5.62317214       1.25961009      -5.53817956
C        4.48912328       1.91087094      -5.02397396
C        3.24719798       1.59074320      -5.60376948
C        3.14481179       0.62989482      -6.61390289
C        4.63011685       2.90083830      -3.85724335
H        5.21755693       2.45471650      -3.04651031
N        3.34413851       3.33759776      -3.31939837
C        2.51260222       2.51458703      -2.50412249
C        1.19445046       2.88192024      -2.19812677
C        0.38010488       2.06870673      -1.39860507
C        0.88091960       0.88091960      -0.88091960
C        2.18371068       0.49294293      -1.16629062
C        2.98788830       1.30015629      -1.98060973
C        3.08621333       4.65298143      -3.68967161
O        2.11280227       5.37029208      -3.52966377
C        4.34217299       5.20310308      -4.25565004
C        5.23794443       4.21389402      -4.27513953
C        6.70886931       4.30822717      -4.38856885
O        7.40085850       3.42805856      -3.87459275
C        7.39994370       5.44256926      -5.04466985
C        8.63692468       5.84179092      -4.51175649
C        9.37121963       6.86578355      -5.11366401
C        8.87203485       7.48626147      -6.25572687
C        7.65159675       7.08796990      -6.80240972
C        6.91798962       6.05691452      -6.20299601
O        4.51741699       6.54044926      -4.45591142
H        4.73607002      -2.56519688      -9.10450184
H        5.57481325      -2.28024912      -7.57664539
H        5.86955487      -1.20989973      -9.00216063
H        6.43543584      -0.14627106      -6.93115650
H        6.61332807       1.46873807      -5.13509586
H        2.32471463       2.05782094      -5.26617010
H        2.16626571       0.37758077      -7.01744789
H        0.75121701       3.79307394      -2.58847534
H       -0.64141700       2.37800984      -1.19264387
H        2.58893064      -0.43189978      -0.76393879
H        3.99707644       0.94703767      -2.17063358
H        9.03690606       5.35013280      -3.62656639
H       10.32731178       7.16204778      -4.68893077
H        7.26598874       7.56842542      -7.69818561
H        5.98066717       5.74615005      -6.65670979
H        3.65681981       6.95181551      -4.22506035
C        9.62916243       8.53810951      -6.88339997
C       10.26325679       9.41903224      -7.40907619
Br      11.28853373      10.84340980      -8.25905018
C       -4.12390402      -9.04435488       1.38548054
O       -4.60247465      -7.72083335       1.18232153
C       -4.24900073      -7.11131246       0.01249735
C       -3.61743718      -7.71346597      -1.07355728
C       -3.26661766      -6.95480915      -2.19953498
C       -3.55936829      -5.58289099      -2.28170890
C       -4.24157258      -5.00600674      -1.19413135
C       -4.56850704      -5.75805642      -0.06204603
C       -3.11170704      -4.77002695      -3.50646452
H       -2.05129637      -4.94989019      -3.71759717
N       -3.32114388      -3.33322146      -3.34676930
C       -2.50693829      -2.50752733      -2.51684612
C       -2.87343027      -1.18881741      -2.21224978
C       -2.07140046      -0.38189216      -1.39412406
C       -0.88091960      -0.88091960      -0.88091960
C       -0.49213286      -2.18317320      -1.16763817
C       -1.30592246      -2.99171412      -1.97101775
C       -4.38539848      -2.90867371      -4.13479419
O       -4.94221681      -1.82877700      -4.24176431
C       -4.72544372      -4.02524898      -5.05023342
C       -3.93934695      -5.05578417      -4.73184687
C       -3.61461548      -6.24866229      -5.54238756
O       -2.52816543      -6.80378502      -5.37155935
C       -4.51059588      -6.78158519      -6.59500174
C       -3.90851930      -7.35421102      -7.72774176
C       -4.69012041      -7.92768071      -8.73286608
C       -6.07616801      -7.93644663      -8.60140855
C       -6.68440318      -7.38383275      -7.47374045
C       -5.90085162      -6.81444285      -6.46260569
O       -5.53016809      -3.84710174      -6.13650784
H       -4.35974640      -9.33072668       2.41509811
H       -3.03657522      -9.10249303       1.26785873
H       -4.63238821      -9.74587647       0.71644891
H       -3.37432252      -8.77132771      -1.07467105
H       -2.74531614      -7.46032966      -3.01151619
H       -4.51061508      -3.95212824      -1.18596236
H       -5.06385406      -5.27557880       0.77813850
H       -3.79992412      -0.75576206      -2.57708011
H       -2.39299378       0.63147525      -1.16771818
H        0.43904529      -2.58418964      -0.77582530
H       -0.95262895      -4.00078621      -2.16133252
H       -2.82446458      -7.36114095      -7.82799972
H       -4.20815927      -8.36742518      -9.60270587
H       -7.76641782      -7.39735546      -7.36882649
H       -6.39220145      -6.40931825      -5.58200730
H       -5.83487331      -2.91573563      -6.08308672
C       -6.88555615      -8.53270359      -9.63241217
C       -7.56341872      -9.03206879     -10.49587771
Br      -8.65946516      -9.83950009     -11.89202845
C       -2.52394212      -0.44469204       9.70352828
O       -1.80898015       0.46027228       8.87173405
C       -2.49836346       1.01688930       7.83256308
C       -3.87044733       0.92478559       7.60922752
C       -4.44387074       1.50730215       6.46978891
C       -3.66811874       2.21776290       5.53808655
C       -2.29240213       2.34025686       5.80905167
C       -1.71828304       1.73799716       6.93232928
C       -4.31968116       2.79616751       4.27234984
H       -4.92033088       2.03058533       3.76786753
N       -3.34759578       3.33121540       3.32232346
C       -2.51494699       2.51213696       2.50422780
C       -1.44441739       3.05251909       1.77756098
C       -0.62723553       2.24330288       0.97687827
C       -0.88091960       0.88091960       0.88091960
C       -1.93575642       0.31877768       1.58841013
C       -2.73861413       1.12858528       2.40145492
C       -3.38802156       4.72125861       3.31958620
O       -2.70586239       5.55675595       2.75013978
C       -4.59677658       5.12589057       4.07825896
C       -5.16134067       4.01330623       4.55233108
C       -6.54271381       3.82064579       5.04230573
O       -7.05932068       2.70720919       4.93697994
C       -7.36284354       4.91786068       5.60647859
C       -8.74567346       4.88346215       5.36133648
C       -9.58756455       5.85313555       5.90996710
C       -9.04719411       6.85442495       6.71240413
C       -7.67721173       6.88996226       6.97480239
C       -6.83349835       5.91420305       6.43019876
O       -5.08558598       6.39792515       4.03026654
H       -1.80526668      -0.91304662      10.38315492
H       -2.99445064      -1.24308918       9.11984808
H       -3.26196664       0.08936831      10.31048082
H       -4.52420591       0.39853178       8.29758359
H       -5.51548332       1.38263901       6.31903967
H       -1.62704520       2.88152109       5.14013937
H       -0.64561124       1.81981839       7.09586474
H       -1.19586324       4.10828566       1.82861739
H        0.20224672       2.69373728       0.43774614
H       -2.14744998      -0.74505154       1.51857122
H       -3.54788915       0.63530184       2.93155670
H       -9.17381857       4.09453630       4.74525038
H      -10.65573476       5.81148754       5.71106802
H       -7.25722610       7.66823470       7.60713898
H       -5.77280106       5.94621896       6.66450699
H       -4.44032320       6.90309169       3.49028077
C       -9.91267342       7.85244659       7.28555191
C      -10.63751235       8.68828970       7.76556317
Br     -11.80951559      10.03977733       8.54170078
C        4.64663486      -8.74846789      -1.61232439
O        5.04595969      -7.41532404      -1.32029726
C        4.60477950      -6.88482605      -0.14178971
C        3.95265325      -7.57224072       0.87956647
C        3.50859274      -6.89059732       2.02177173
C        3.72599602      -5.51204590       2.18592627
C        4.43000987      -4.84728060       1.16442020
C        4.85020448      -5.52318794       0.01521707
C        3.17771611      -4.78615269       3.42432970
H        2.11890571      -5.02830912       3.57156891
N        3.32051149      -3.33450946       3.34611369
C        2.50648383      -2.50803562       2.51679230
C        2.81910396      -1.15905003       2.29634346
C        2.01760982      -0.35130897       1.47849789
C        0.88091960      -0.88091960       0.88091960
C        0.54608898      -2.21366140       1.08319385
C        1.36011788      -3.02167995       1.88685650
C        4.32167969      -2.89950661       4.20768008
O        4.81629605      -1.80059510       4.39586697
C        4.67352596      -4.04372721       5.08367294
C        3.95801429      -5.09374216       4.67522154
C        3.65582005      -6.34120209       5.40864318
O        2.60903246      -6.93929233       5.15518500
C        4.52545663      -6.88310040       6.47862578
C        3.89893944      -7.54202122       7.54951143
C        4.65889520      -8.12751690       8.56425510
C        6.04832766      -8.06168021       8.50401531
C        6.68176939      -7.42268047       7.43752651
C        5.92037210      -6.84104047       6.41648759
O        5.41390394      -3.88254687       6.21732686
H        4.94699370      -8.96960176      -2.64122048
H        3.55928659      -8.86571217      -1.55378923
H        5.15719592      -9.45776277      -0.95314292
H        3.76452673      -8.63938506       0.81640950
H        2.97488818      -7.46212634       2.78014748
H        4.64454893      -3.78247784       1.22167890
H        5.36058558      -4.97446245      -0.77375367
H        3.70312749      -0.70052725       2.72911156
H        2.29732936       0.68688488       1.31879222
H       -0.34293528      -2.63906702       0.62483791
H        1.05032300      -4.05528339       2.00914129
H        2.81307179      -7.60713292       7.59340053
H        4.15821651      -8.63448798       9.38558584
H        7.76688224      -7.37783005       7.38788748
H        6.43272344      -6.36758897       5.58321459
H        5.67253332      -2.93587408       6.22528827
C        6.83590655      -8.66987763       9.54488773
C        7.49550387      -9.17924296      10.41661839
Br       8.56201695     -10.00284363      11.82613312
