189
Properties=species:S:1:pos:R:3 pbc="F F F"
C        0.00000000       0.00000000       0.00000000
C        5.12419691      -1.78445294      -8.44303439
O        4.03328618      -0.95529753      -8.06299783
C        4.27654563      -0.02348379      -7.09475399
C        5.52168171       0.31403873      -6.56873999
C        5.62317214       1.25961009      -5.53817956
C        4.48912328       1.91087094      -5.02397396
C        3.24719798       1.59074320      -5.60376948
C        3.14481179       0.62989482      -6.61390289
C        4.63011685       2.90083830      -3.85724335
H        5.21755693       2.45471650      -3.04651031
N        3.34413851       3.33759776      -3.31939837
C        2.51260222       2.51458703      -2.50412249
C        1.19445046       2.88192024      -2.19812677
C        0.38010488       2.06870673      -1.39860507
C        0.88091960       0.88091960      -0.88091960
C        2.18371068       0.49294293      -1.16629062
C        2.98788830       1.30015629      -1.98060973
C        3.08621333       4.65298143      -3.68967161
O        2.11280227       5.37029208      -3.52966377
C        4.34217299       5.20310308      -4.25565004
C        5.23794443       4.21389402      -4.27513953
C        6.70886931       4.30822717      -4.38856885
O        7.40085850       3.42805856      -3.87459275
C        7.39994370       5.44256926      -5.04466985
C        8.63692468       5.84179092      -4.51175649
C        9.37121963       6.86578355      -5.11366401
C        8.87203485       7.48626147      -6.25572687
Br       9.86589731       8.86699610      -7.07965766
C        7.65159675       7.08796990      -6.80240972
C        6.91798962       6.05691452      -6.20299601
O        4.51741699       6.54044926      -4.45591142
H        4.73607002      -2.56519688      -9.10450184
H        5.57481325      -2.28024912      -7.57664539
H        5.86955487      -1.20989973      -9.00216063
H        6.43543584      -0.14627106      -6.93115650
H        6.61332807       1.46873807      -5.13509586
H        2.32471463       2.05782094      -5.26617010
H        2.16626571       0.37758077      -7.01744789
H        0.75121701       3.79307394      -2.58847534
H       -0.64141700       2.37800984      -1.19264387
H        2.58893064      -0.43189978      -0.76393879
H        3.99707644       0.94703767      -2.17063358
H        9.03690606       5.35013280      -3.62656639
H       10.32731178       7.16204778      -4.68893077
H        7.26598874       7.56842542      -7.69818561
H        5.98066717       5.74615005      -6.65670979
H        3.65681981       6.95181551      -4.22506035
C       -2.96786444      -9.55852107       0.74360715
O       -3.60232090      -8.28593934       0.74727377
C       -3.45325771      -7.52064690      -0.37391122
C       -2.89334490      -7.92839800      -1.58271754
C       -2.75734802      -7.02069150      -2.64292226
C       -3.19921019      -5.69125551      -2.53350248
C       -3.80632572      -5.31452858      -1.32085636
C       -3.91870871      -6.21356030      -0.25634048
C       -2.98474312      -4.70840732      -3.69504808
H       -1.94326315      -4.74032661      -4.03519397
N       -3.32287310      -3.33039912      -3.34786242
C       -2.50803262      -2.50648638      -2.51679275
C       -2.97205833      -1.27855711      -2.02388202
C       -2.16866163      -0.47337148      -1.20538357
C       -0.88091960      -0.88091960      -0.88091960
C       -0.39450524      -2.09185978      -1.35657920
C       -1.20762809      -2.90155147      -2.15947478
C       -4.51023236      -2.95301607      -3.96561794
O       -5.18533408      -1.94022042      -3.88720361
C       -4.83638314      -3.99999149      -4.96455149
C       -3.91531581      -4.95934507      -4.85231711
C       -3.56468401      -6.01507908      -5.82590224
O       -2.41377762      -6.45444644      -5.83528574
C       -4.51681422      -6.53613399      -6.83423461
C       -3.99455165      -6.91329028      -8.08263016
C       -4.82394187      -7.46600431      -9.06072101
C       -6.17666070      -7.65006378      -8.78729871
Br      -7.30224847      -8.40585210     -10.10445050
C       -6.70350977      -7.29286211      -7.54560450
C       -5.87106633      -6.74457715      -6.56225668
O       -5.77649476      -3.80458121      -5.93270170
H       -3.05081545      -9.97629645       1.75173692
H       -1.90158940      -9.47683117       0.50721104
H       -3.47493725     -10.24091397       0.05403546
H       -2.54298852      -8.94474819      -1.73258457
H       -2.28444887      -7.37445698      -3.55825615
H       -4.18105186      -4.30587317      -1.16178064
H       -4.36027911      -5.88246858       0.68145333
H       -3.97487510      -0.92085325      -2.23703794
H       -2.56560652       0.46637304      -0.83000322
H        0.61274305      -2.42018819      -1.11352451
H       -0.77561162      -3.83712107      -2.50201499
H       -2.93482737      -6.78321668      -8.29556120
H       -4.40351016      -7.75335701     -10.02142316
H       -7.75854213      -7.44338411      -7.33067353
H       -6.29590412      -6.49363539      -5.59398749
H       -6.16838358      -2.92580990      -5.73950218
C       -3.93802483      -1.29530363       9.14005716
O       -3.00175536      -0.40575303       8.54498414
C       -3.45761579       0.37143294       7.51876711
C       -4.78344305       0.50788444       7.11313295
C       -5.10771675       1.30634929       6.00689575
C       -4.12186450       2.00882106       5.29328263
C       -2.79553389       1.89565853       5.75051824
C       -2.47072859       1.07975642       6.83812448
C       -4.50505498       2.83049958       4.05264395
H       -5.11807658       2.22978796       3.37091919
N       -3.34600341       3.33470901       3.32042221
C       -2.51374953       2.51354174       2.50402048
C       -1.28975308       2.98055052       2.00419386
C       -0.47395505       2.16910427       1.20435735
C       -0.88091960       0.88091960       0.88091960
C       -2.08948439       0.39270350       1.36075634
C       -2.89294018       1.20109639       2.17461776
C       -3.20989392       4.70507520       3.51389726
O       -2.35256640       5.49810010       3.16209162
C       -4.45494120       5.18146425       4.16452066
C       -5.21801457       4.11151762       4.39744580
C       -6.66892474       4.06062847       4.67611212
O       -7.30115110       3.05600637       4.34635232
C       -7.41703414       5.18498038       5.28516829
C       -8.74296923       5.38237019       4.86513267
C       -9.52627690       6.38666658       5.43772371
C       -8.98581287       7.18983154       6.43837877
Br     -10.04439314       8.54508817       7.22306976
C       -7.67484098       6.99324221       6.87389318
C       -6.89109587       5.98220135       6.30460294
O       -4.76720581       6.50664924       4.23992263
H       -3.39022336      -1.94474640       9.82989802
H       -4.41600124      -1.93706962       8.39227791
H       -4.68280651      -0.74090870       9.71991797
H       -5.59109708      -0.00076879       7.62999298
H       -6.15328376       1.35818427       5.70569397
H       -1.97741873       2.41491018       5.25637676
H       -1.43137887       0.98411040       7.14580510
H       -0.92000850       3.97423435       2.23852343
H        0.47497928       2.55907865       0.84513734
H       -2.42135234      -0.61186004       1.11147735
H       -3.82614236       0.76728423       2.52132109
H       -9.17348381       4.74785421       4.09226723
H      -10.55101980       6.52554818       5.10172235
H       -7.25603105       7.61643411       7.66013461
H       -5.88002893       5.83048125       6.67301682
H       -3.99203238       6.97711744       3.86454585
C        3.17060701      -9.48242605      -0.87025471
O        3.77966964      -8.19793245      -0.83661562
C        3.59370874      -7.45805182       0.29605527
C        3.01860169      -7.90048342       1.48537532
C        2.84406468      -7.01678115       2.56011596
C        3.26153558      -5.67710205       2.48533056
C        3.88451663      -5.26468926       1.29250477
C        4.03536072      -6.14009355       0.21315523
C        3.00510003      -4.72182038       3.66127810
H        1.95804380      -4.78070784       3.98003209
N        3.32253663      -3.33089147       3.34770654
C        2.50783174      -2.50666059       2.51681942
C        2.95692180      -1.26041818       2.05715748
C        2.15378313      -0.45493394       1.23869961
C        0.88091960      -0.88091960       0.88091960
C        0.40944806      -2.11027267       1.32322351
C        1.22270165      -2.91976298       2.12618970
C        4.48995430      -2.94282261       3.99608946
O        5.14624768      -1.91574374       3.95076670
C        4.81731641      -4.00285384       4.98075587
C        3.91779795      -4.97751276       4.83166727
C        3.56930442      -6.05894889       5.77741201
O        2.42736670      -6.52069873       5.75544437
C        4.51179918      -6.58128373       6.79409990
C        3.97295218      -6.99318524       8.02433466
C        4.79396938      -7.54895289       9.00774492
C        6.15512827      -7.70123498       8.75765993
Br       7.26966448      -8.46096229      10.08192431
C        6.69882524      -7.30932408       7.53382706
C        5.87494595      -6.75793894       6.54501526
O        5.73437883      -3.80843674       5.97096210
H        3.28139692      -9.87844887      -1.88447081
H        2.09852989      -9.42617377      -0.65349413
H        3.67760787     -10.16836826      -0.18416036
H        2.68561042      -8.92622072       1.60849015
H        2.36057096      -7.39774080       3.45885024
H        4.24219972      -4.24598771       1.16051824
H        4.48842358      -5.78196262      -0.70909184
H        3.94812075      -0.88758863       2.29705691
H        2.53924560       0.49960188       0.88959298
H       -0.58618185      -2.45323165       1.05391986
H        0.80273656      -3.87015621       2.44185492
H        2.90692040      -6.88797556       8.21870929
H        4.36072503      -7.86340487       9.95416042
H        7.76061103      -7.43502583       7.33696291
H        6.31346334      -6.47964829       5.59041538
H        6.11245523      -2.91855944       5.80268100
