149
Properties=species:S:1:pos:R:3 pbc="F F F"
C        0.00000000       0.00000000       0.00000000
C        0.88292024       0.88292024      -0.88292024
C        1.17792966       2.17801976      -0.47578169
C        1.98728879       2.97118378      -1.27888274
C        2.49135983       2.46701504      -2.48402263
C        2.20483802       1.15852984      -2.92031009
C        1.38834009       0.37513555      -2.08556460
N        2.72810517       0.65689978      -4.17885520
C        2.13516226      -0.44122941      -4.80301154
O        1.00922689      -0.88581337      -4.58533076
N        2.85553524      -1.02946921      -5.80771115
C        3.55914622      -0.29592375      -6.71149173
O        3.68767740      -0.65885796      -7.87402140
C        4.05167961       0.98902646      -6.17992150
C        4.60795823       1.84705894      -7.05712196
C        5.05076772       3.19160765      -6.85963852
C        4.45660091       4.13342278      -6.04909673
N        5.15281434       5.30652183      -6.18178330
H        4.94649988       6.16478173      -5.68949557
C        6.15630309       5.16312886      -7.11192908
C        7.07791189       6.10218599      -7.59066293
C        7.99750861       5.67500883      -8.55256599
C        7.99034217       4.35857799      -9.00543293
Br       9.25415320       3.81501384     -10.30566934
C        7.06543076       3.42829270      -8.51989092
C        6.12198615       3.83835654      -7.55307969
C        3.87586130       1.23977664      -4.72640221
O        4.74318072       1.83269945      -4.08844988
H        0.78868931       2.57311203       0.45859269
H        2.23095474       3.98587864      -0.97276702
H        3.10438493       3.14268149      -3.07538903
H        1.14711423      -0.65452148      -2.33340051
H        2.38155022      -1.81842848      -6.22961034
H        4.72245999       1.50235612      -8.08632642
H        3.60483423       4.08672372      -5.38568795
H        7.08183330       7.12772945      -7.23530519
H        8.72156010       6.38624763      -8.94312126
H        7.07024521       2.40384374      -8.87872776
C       -0.88292024      -0.88292024      -0.88292024
C       -0.92041104      -0.65797344      -2.25334663
C       -1.71821385      -1.46925047      -3.04989100
C       -2.47583488      -2.49500638      -2.47155625
C       -2.45719606      -2.74176940      -1.08471248
C       -1.63662928      -1.90990257      -0.30250838
N       -3.25838753      -3.80368594      -0.50178667
C       -3.56489748      -3.79148874       0.85944183
O       -3.50053577      -2.82275563       1.61454712
N       -4.05625052      -4.95821758       1.38069091
C       -4.94947588      -5.72784795       0.70260963
O       -5.81917472      -6.36600920       1.28234308
C       -4.82067228      -5.63586718      -0.76408811
C       -5.77454782      -6.23177195      -1.50581936
C       -5.97874432      -6.20310472      -2.92016485
C       -5.75808096      -5.12831312      -3.75272633
N       -6.12746158      -5.49223051      -5.02142738
H       -6.05868660      -4.90263503      -5.83945555
C       -6.64250286      -6.76794780      -5.02091037
C       -7.17545413      -7.52165281      -6.07365387
C       -7.63604677      -8.80829648      -5.78074017
C       -7.55636981      -9.31246386      -4.48551941
Br      -8.18604147     -11.06134728      -4.12744763
C       -7.02144215      -8.55101240      -3.44115983
C       -6.55638191      -7.24574921      -3.71129126
C       -3.66234021      -4.87746616      -1.30223379
O       -3.08558274      -5.26118322      -2.31756409
H       -0.33414549       0.13700766      -2.70607082
H       -1.75580143      -1.30893304      -4.12486592
H       -3.09264276      -3.08369649      -3.14611620
H       -1.54089428      -2.05480522       0.76970623
H       -4.26531726      -4.89686475       2.36944992
H       -6.53569139      -6.80348406      -0.97196708
H       -5.37129253      -4.13593706      -3.57001630
H       -7.23567552      -7.12646342      -7.08272901
H       -8.05785709      -9.41268424      -6.58038766
H       -6.96244856      -8.95499276      -2.43537539
C       -0.88292024       0.88292024       0.88292024
C       -1.11622279       0.51374274       2.20176558
C       -1.91237290       1.32496977       3.00001265
C       -2.47317223       2.49521135       2.47401393
C       -2.25398218       2.89007741       1.13961836
C       -1.43946680       2.05411228       0.35546115
N       -2.85315154       4.10192872       0.60877988
C       -2.98647524       4.27929776      -0.76882861
O       -2.93609828       3.39995110      -1.62730509
N       -3.27624860       5.54889520      -1.19136662
C       -4.15628577       6.34414128      -0.52571285
O       -4.87042436       7.14641487      -1.11399839
C       -4.22291755       6.07457873       0.92313129
C       -5.18999027       6.69906539       1.62308346
C       -5.57136170       6.53937764       2.99127454
C       -5.57719536       5.35972541       3.70219965
N       -6.05964478       5.62391609       4.95755860
H       -6.15956593       4.94323724       5.69797401
C       -6.42579676       6.94614099       5.05942327
C       -6.99925097       7.63905383       6.13245601
C       -7.27394315       8.99769159       5.95344869
C       -6.97746594       9.62853776       4.74834938
Br      -7.35941114      11.47128357       4.54414167
C       -6.40397128       8.92680994       3.68283317
C       -6.12409174       7.55178437       3.83754627
C       -3.23235170       5.12227876       1.48740970
O       -2.74809893       5.31579147       2.60043966
H       -0.68304835      -0.39360410       2.61376440
H       -2.10165149       1.05231226       4.03563665
H       -3.10032259       3.07788812       3.14424475
H       -1.19491515       2.30399417      -0.67291605
H       -3.36553418       5.62427955      -2.19708165
H       -5.81021350       7.41715831       1.08377072
H       -5.28313361       4.35322570       3.44088658
H       -7.22866913       7.14497420       7.07122462
H       -7.72274121       9.55757826       6.77060953
H       -6.17519955       9.42934516       2.74827200
C        0.88292024      -0.88292024       0.88292024
C        1.38972303      -2.07089366       0.37111441
C        2.19768708      -2.86348768       1.17618056
C        2.48902379      -2.46642884       2.48694488
C        1.98546418      -1.26810623       3.03010753
C        1.17540037      -0.48181891       2.19182095
N        2.28987087      -0.87831390       4.39567537
C        1.49040502       0.05294781       5.05948718
O        0.34872264       0.38922648       4.74924812
N        2.00687155       0.58396019       6.21086583
C        2.69129323      -0.17529705       7.10812392
O        2.63622830       0.04491885       8.31153139
C        3.40562759      -1.31421065       6.50078932
C        3.96431818      -2.20957673       7.33824421
C        4.59892335      -3.45659358       7.04649696
C        4.23054685      -4.34658104       6.06199252
N        5.05414975      -5.43869550       6.14827422
H        5.02002579      -6.24325250       5.53749889
C        5.91615822      -5.30328913       7.21191368
C        6.89116357      -6.18417663       7.69542060
C        7.62979787      -5.78316954       8.81211601
C        7.39836023      -4.54694831       9.40904455
Br       8.42166778      -4.03584392      10.91732468
C        6.42203550      -3.67418930       8.91738959
C        5.65824784      -4.06045606       7.79471847
C        3.43304809      -1.39137497       5.01761709
O        4.43822646      -1.79170098       4.43440262
H        1.16594546      -2.38269452      -0.64543133
H        2.60561287      -3.79448736       0.78950017
H        3.11273851      -3.13830364       3.07141331
H        0.77464758       0.47181487       2.52316056
H        1.38830593       1.25096312       6.65538928
H        3.91321044      -1.99150089       8.40643120
H        3.46229639      -4.31217083       5.30277868
H        7.07012057      -7.14709129       7.22765609
H        8.39066536      -6.45100282       9.20926081
H        6.25142204      -2.71179897       9.38959570
