181
Properties=species:S:1:pos:R:3 pbc="F F F"
C        0.00000000       0.00000000       0.00000000
C        0.88176357       0.88176357      -0.88176357
C        0.30370163       1.89882006      -1.63861488
C        1.11023601       2.69216660      -2.45753253
C        2.49259120       2.46377412      -2.52756057
C        3.06864309       1.47028496      -1.72873599
C        2.25919145       0.66702606      -0.91876261
C        3.29210048       3.33996622      -3.41409282
O        2.97144705       4.52489697      -3.52086991
C        4.42444405       2.83333932      -4.21458455
C        4.73910901       1.58279365      -4.55933144
O        4.12103603       0.40668831      -4.25452309
C        5.84824158       1.64973473      -5.53611429
O        6.28613546       0.62616566      -6.03705464
N        6.08907217       2.99455576      -5.80155042
C        6.75717747       3.46609598      -6.97037845
C        7.61928142       2.63254757      -7.69974549
C        8.21465796       3.05800411      -8.89461350
C        7.95880624       4.33425577      -9.37788982
C        7.12260024       5.18845005      -8.67029602
C        6.52995184       4.75560752      -7.47620399
C        5.33250691       3.83799344      -4.87766799
H        4.70445273       4.53090570      -5.45014804
C        6.23745501       4.60081266      -3.91290228
C        6.56523186       5.94609857      -4.16477112
C        7.40776256       6.66207601      -3.30660907
C        7.92446946       6.05627705      -2.16548806
C        7.60703848       4.73036215      -1.89010770
C        6.78535678       4.01543924      -2.76190093
F        6.52026312       2.73796780      -2.45386142
H       -0.76692002       2.08202300      -1.60070469
H        0.65684343       3.48870892      -3.04485878
H        4.14247397       1.30102701      -1.73140454
H        2.71274998      -0.12169340      -0.32424467
H        4.60935866      -0.27768011      -4.76058740
H        7.86000276       1.62911265      -7.35879356
H        8.86622192       2.37743870      -9.43637998
H        6.90493021       6.18541314      -9.04507007
H        5.84528146       5.44708679      -7.00007346
H        6.16327766       6.46438356      -5.03119411
H        7.65434488       7.69807642      -3.52881630
H        8.56925973       6.61619655      -1.49276641
H        7.99454428       4.24444031      -0.99970046
C        8.54785093       4.76809073     -10.61821784
C        9.04117585       5.13142751     -11.65699255
Br       9.83884053       5.71891236     -13.33660340
C       -0.88176357      -0.88176357      -0.88176357
C       -2.25027121      -0.63162762      -0.95923773
C       -3.05685950      -1.45051738      -1.75255825
C       -2.49816301      -2.52467819      -2.46108469
C       -1.11654618      -2.73858261      -2.41253525
C       -0.31071875      -1.92673437      -1.60752699
C       -3.40700449      -3.35465139      -3.28450364
O       -4.34963340      -2.80791513      -3.85966540
C       -3.25615428      -4.81895694      -3.39725670
C       -2.58462165      -5.67387742      -2.62273502
O       -1.82354126      -5.44304878      -1.51565739
C       -2.93203492      -7.04470816      -3.05734752
O       -2.47320290      -8.00953717      -2.46661569
N       -3.90005455      -6.93395938      -4.05116442
C       -4.78694108      -7.98960887      -4.41710195
C       -4.46667139      -9.33063409      -4.15426901
C       -5.36606927     -10.36822765      -4.43297863
C       -6.60546834     -10.07799015      -4.98749333
C       -6.94541331      -8.76195726      -5.27397574
C       -6.04089092      -7.72920194      -4.99167049
C       -4.05744920      -5.53727290      -4.45344624
H       -5.10694478      -5.24193336      -4.33662832
C       -3.58183928      -5.28668888      -5.88264179
C       -4.51186788      -5.22700459      -6.93722908
C       -4.10039672      -5.01755497      -8.25849595
C       -2.75193534      -4.84131120      -8.55298803
C       -1.81471484      -4.88655650      -7.52623699
C       -2.22932421      -5.11879933      -6.21457341
F       -1.28333298      -5.16299751      -5.26576185
H       -2.69829554       0.19189904      -0.40941118
H       -4.12513146      -1.25066561      -1.81461406
H       -0.65212671      -3.53700925      -2.98576956
H        0.75753429      -2.11947052      -1.55336502
H       -1.56967547      -6.33305738      -1.18953311
H       -3.50594668      -9.61120674      -3.73075554
H       -5.08493903     -11.39248970      -4.20261187
H       -7.91762257      -8.52119036      -5.69660048
H       -6.38531458      -6.72070689      -5.18642024
H       -5.57644189      -5.33477233      -6.74764110
H       -4.83802501      -4.98573736      -9.05747523
H       -2.43373316      -4.66675881      -9.57773072
H       -0.75923271      -4.74262679      -7.73682555
C       -7.54370711     -11.13767526      -5.25277712
C       -8.32948208     -12.02516154      -5.47495229
Br      -9.60001375     -13.46015178      -5.83419076
C       -0.88176357       0.88176357       0.88176357
C       -1.89725001       0.30339787       1.64048869
C       -2.71331715       1.11432811       2.43228987
C       -2.52109129       2.50368065       2.45915395
C       -1.46964499       3.06851927       1.72949978
C       -0.66084917       2.25799638       0.92613456
C       -3.41936217       3.30746162       3.31933573
O       -3.79557562       2.83034146       4.39129684
C       -3.92248880       4.63516745       2.91471168
C       -3.97270067       5.20149672       1.70703670
O       -3.55368364       4.72990155       0.49866224
C       -4.75800210       6.44961420       1.82647430
O       -4.98286715       7.12904911       0.83743950
N       -5.22978918       6.52153438       3.13385480
C       -6.34651599       7.31446728       3.53266863
C       -6.76182969       8.41819506       2.77154974
C       -7.90659124       9.15273927       3.10794504
C       -8.65479980       8.79472432       4.22142771
C       -8.26039954       7.71694625       5.00400052
C       -7.11457599       6.98635371       4.66083364
C       -4.61114190       5.48209195       3.95493449
H       -5.39491505       4.87161710       4.41897431
C       -3.67657315       6.05863759       5.01595920
C       -4.12162644       6.21224177       6.34223335
C       -3.29144316       6.75562873       7.32937574
C       -1.99016515       7.13777769       7.01829173
C       -1.52432301       6.98674945       5.71643588
C       -2.36464368       6.46596880       4.73208447
F       -1.86799672       6.35194530       3.49215032
H       -2.06314127      -0.77057316       1.62323956
H       -3.50347167       0.65969966       3.02723981
H       -1.27169534       4.13679902       1.76641117
H        0.13483691       2.71020704       0.33993112
H       -3.83922155       5.40587699      -0.15283258
H       -6.20517366       8.74535703       1.89737828
H       -8.20180060       9.99309145       2.48514856
H       -8.84501184       7.41949657       5.87090500
H       -6.89025761       6.12449921       5.27768490
H       -5.12210636       5.90358032       6.63316865
H       -3.66247978       6.87355705       8.34520077
H       -1.34158880       7.54875399       7.78787989
H       -0.50893028       7.27181577       5.45793901
C       -9.84620587       9.53034022       4.55761340
C      -10.84400846      10.14641854       4.83916892
Br     -12.45737085      11.14256507       5.29442037
C        0.88176357      -0.88176357       0.88176357
C        0.55338193      -2.22349537       1.06425927
C        1.35163891      -3.02302308       1.88527314
C        2.47240549      -2.48027518       2.53124522
C        2.81906125      -1.14408615       2.30451664
C        2.01209226      -0.33992841       1.49295945
C        3.27785603      -3.38072496       3.38757853
O        3.41373950      -4.55694778       3.04652664
C        3.87781356      -2.93409302       4.66046135
C        3.59199519      -1.87219714       5.41704177
O        2.67957471      -0.87787457       5.22479815
C        4.34172283      -2.00706761       6.68530015
O        4.20966128      -1.17287732       7.56681715
N        4.99393589      -3.23617440       6.65506807
C        5.45479391      -3.91952203       7.81933597
C        5.71023125      -3.22776186       9.01358138
C        6.08224416      -3.89939664      10.18563477
C        6.21027670      -5.28192860      10.17874653
C        5.97984342      -5.99336806       9.00813484
C        5.60724788      -5.31475374       7.83976171
C        4.88743204      -3.83507228       5.32566402
H        4.44092916      -4.83283945       5.41173785
C        6.23460105      -3.90621683       4.61035207
C        6.96768886      -5.10753373       4.60087896
C        8.21349635      -5.19405463       3.96889666
C        8.74509530      -4.08781853       3.31332074
C        8.03475193      -2.89203399       3.30072241
C        6.80421519      -2.80607709       3.95240467
F        6.16728416      -1.62700200       3.91780618
H       -0.31658232      -2.65562866       0.57676134
H        1.09530700      -4.07196742       2.02313672
H        3.70649948      -0.71012663       2.75827942
H        2.27344055       0.70484542       1.34670612
H        2.71927416      -0.33303119       6.03996061
H        5.63429754      -2.14503993       9.06857149
H        6.25866567      -3.32813357      11.09324137
H        6.06479516      -7.07703893       8.99357932
H        5.38818791      -5.92932376       6.97493005
H        6.57759433      -6.00173821       5.07952278
H        8.76537555      -6.13142521       3.98443684
H        9.70728563      -4.15861211       2.81232494
H        8.43064814      -2.02128143       2.78675548
C        6.56778621      -5.97988140      11.38649189
C        6.86720043      -6.56441686      12.39797862
Br       7.35132790      -7.50956127      14.03346712
