194
Properties=species:S:1:pos:R:3 pbc="F F F"
O        4.83773512       3.56428581      -9.63334443
C        4.07350753       4.50506324      -8.90194004
C        4.63044741       4.64447227      -7.49334936
C        4.55593926       3.33795313      -6.68700334
N        5.01053909       3.52672210      -5.30978464
C        4.25502875       4.31300580      -4.33978369
H        3.57299183       4.96596909      -4.88572011
C        3.41874566       3.42465794      -3.41882303
C        3.67264636       3.28520661      -2.04131525
C        2.86041780       2.48207616      -1.23250215
C        1.79110834       1.79110834      -1.79110834
C        1.52177261       1.90102300      -3.15034011
C        2.32438048       2.71757923      -3.95333406
C        5.36029870       5.08263016      -3.67860984
C        6.56547617       4.58456759      -3.97975824
O        7.80274444       4.98441367      -3.57203169
C        6.36955993       3.59073837      -5.05222191
O        7.29662955       3.08885944      -5.66492022
C        5.16769628       6.21603731      -2.74940903
O        5.89170874       6.36427273      -1.77025180
C        4.02049606       7.14688955      -2.93609815
C        3.48283967       7.46398012      -4.18979107
C        2.35663007       8.28945160      -4.28481001
C        1.80376989       8.84563947      -3.13224780
Br       0.27844713       9.95333750      -3.26257236
C        2.37469360       8.59793255      -1.88697673
C        3.48009987       7.74898953      -1.79045216
H        4.54688718       3.60875006     -10.56101130
H        3.03000615       4.17589056      -8.88117869
H        4.12426523       5.47122053      -9.41543780
H        4.07482440       5.43873565      -6.98400575
H        5.67655537       4.97113337      -7.54483067
H        5.19361292       2.57954612      -7.15584902
H        3.53409987       2.95100912      -6.67155930
H        4.50570458       3.79277668      -1.55758508
H        3.07746575       2.40283817      -0.16989679
H        0.69260848       1.35771205      -3.59620619
H        2.08130611       2.78986257      -5.01002856
H        8.43412756       4.40043410      -4.04002147
H        3.92960429       7.09613505      -5.10832433
H        1.92345742       8.50111333      -5.25964874
H        1.97018591       9.05388966      -0.98675012
H        3.92095138       7.55843935      -0.81264738
O       -5.30346024      -3.22495393      -9.50695120
C       -4.41858216      -4.15370367      -8.90822499
C       -4.85252818      -4.43751181      -7.47822904
C       -4.81001934      -3.19085438      -6.58002199
N       -5.14108270      -3.51350097      -5.19246216
C       -4.25744378      -4.30655284      -4.34382162
H       -3.57462708      -4.86321907      -4.98683488
C       -3.41832445      -3.42461887      -3.41928331
C       -3.57352084      -3.40528516      -2.02036223
C       -2.76090098      -2.60185637      -1.21223876
C       -1.79110834      -1.79110834      -1.79110834
C       -1.62127456      -1.78119054      -3.17067063
C       -2.42290457      -2.59763988      -3.97474932
C       -5.24931664      -5.20572604      -3.66649602
C       -6.50712755      -4.78263685      -3.84003760
O       -7.67672249      -5.30609720      -3.37637011
C       -6.46771032      -3.70166983      -4.84314007
O       -7.47354196      -3.23060065      -5.34626660
C       -4.90349308      -6.38485230      -2.84479722
O       -5.53639169      -6.65942412      -1.83041745
C       -3.71007172      -7.20754565      -3.18586639
C       -3.25024154      -7.39034787      -4.49602145
C       -2.07816353      -8.11651730      -4.73621086
C       -1.39842821      -8.70976049      -3.67346846
Br       0.18814592      -9.68290562      -3.99959729
C       -1.88697975      -8.59793279      -2.37469035
C       -3.03995102      -7.84691243      -2.13267811
H       -5.08333561      -3.17946606     -10.45384686
H       -3.40315941      -3.74657964      -8.93733637
H       -4.43925004      -5.08123801      -9.49043550
H       -4.20296509      -5.22078623      -7.07381448
H       -5.87311813      -4.84012170      -7.47927958
H       -5.53542149      -2.45255364      -6.94103293
H       -3.82072498      -2.72758998      -6.60835334
H       -4.32748777      -4.00985322      -1.51872534
H       -2.89964120      -2.61676752      -0.13379199
H       -0.87081179      -1.14412361      -3.63159132
H       -2.25832727      -2.57421246      -5.04865750
H       -8.38319843      -4.74080773      -3.75057697
H       -3.79263505      -6.99302483      -5.34840379
H       -1.70811398      -8.22278048      -5.75332503
H       -1.38166320      -9.08483889      -1.54432360
H       -3.41587924      -7.76245395      -1.11370492
O       -8.77875873       6.74964149       2.50696514
C       -8.61357425       5.57990876       3.28702781
C       -7.24163436       5.58270679       3.94392789
C       -6.08956442       5.56482803       2.92650327
N       -4.78766151       5.47286733       3.58651699
C       -4.35154690       4.26915999       4.28711135
H       -5.23315371       3.67095609       4.52057123
C       -3.42078972       3.41732736       3.42410955
C       -2.05808061       3.22271593       3.71837167
C       -1.25199873       2.40940523       2.91359216
C       -1.79110834       1.79110834       1.79110834
C       -3.13108851       1.97278082       1.46926640
C       -3.93870408       2.77211056       2.28447914
C       -3.73652865       4.86674544       5.51826461
C       -3.55007006       6.18617371       5.39355823
O       -3.01012083       7.07886244       6.27020653
C       -4.24258289       6.60856121       4.16137611
O       -4.40642859       7.77972130       3.86425932
C       -3.31594077       4.10436483       6.71283701
O       -2.29711248       4.40046893       7.32865186
C       -4.07685802       2.89485730       7.13176843
C       -5.45544967       2.74640433       6.93475687
C       -6.09260156       1.55114663       7.28714350
C       -5.36396665       0.52720128       7.89048924
Br      -6.22496105      -1.08857631       8.35797226
C       -4.00807822       0.69180602       8.15971865
C       -3.36680174       1.87335401       7.77938581
H       -9.70923032       6.78365152       2.22376669
H       -8.73967300       4.70333438       2.64406802
H       -9.39120564       5.56154271       4.05817521
H       -7.17876095       4.71281130       4.60599355
H       -7.14202925       6.47252262       4.57796754
H       -6.10749473       6.48714873       2.33436460
H       -6.19592811       4.72386179       2.23687840
H       -1.58362637       3.69571119       4.57672877
H       -0.20509174       2.27165365       3.17345534
H       -3.55818763       1.49942123       0.58891786
H       -4.98426518       2.88589219       2.01103987
H       -3.08703522       7.95256486       5.83498305
H       -6.05980163       3.54962869       6.52463335
H       -7.15659774       1.43048566       7.09713609
H       -3.43948506      -0.08835694       8.65969756
H       -2.30527690       1.99485934       7.99190187
O        5.76233832      -9.32955283       2.94347421
C        6.48079011      -8.11099293       2.88872778
C        5.84943138      -7.09283474       3.82600291
C        4.40504206      -6.73658277       3.43927089
N        3.85839950      -5.68833657       4.30030975
C        4.34070510      -4.31163350       4.25547964
H        5.32642716      -4.30960386       3.78865001
C        3.42387164      -3.41713882       3.42121618
C        2.65115797      -2.37693987       3.97107038
C        1.84820717      -1.56507843       3.16171052
C        1.79110834      -1.79110834       1.79110834
C        2.53504092      -2.81741632       1.22067848
C        3.34982790      -3.61640865       2.02905723
C        4.41214784      -3.99013836       5.71925250
C        3.76889579      -4.89861471       6.46229149
O        3.59126081      -4.95577485       7.81215413
C        3.42029235      -6.02124594       5.57098192
O        2.98381100      -7.08195842       5.98463979
C        5.05136269      -2.78763209       6.29414783
O        4.56135166      -2.20735964       7.25752197
C        6.25670299      -2.20136039       5.64542038
C        7.21057299      -2.96499099       4.96104688
C        8.28054248      -2.33842389       4.31192531
C        8.43030056      -0.95500641       4.39635021
Br       9.87125933      -0.11071675       3.51238091
C        7.53033767      -0.19301616       5.13624906
C        6.44540148      -0.81615992       5.75798016
H        6.27404222      -9.99352981       2.44907650
H        6.48382697      -7.74637648       1.85687196
H        7.51522945      -8.30128802       3.19440609
H        6.47622981      -6.19498967       3.82634633
H        5.85644350      -7.48572585       4.85035006
H        3.76883615      -7.62397980       3.53619211
H        4.35441966      -6.40203151       2.40021713
H        2.64869886      -2.16773086       5.03963662
H        1.27055004      -0.76358478       3.61606589
H        2.48964523      -3.00576407       0.15111742
H        3.92636875      -4.40380685       1.55102163
H        3.10674189      -5.79041020       7.97743104
H        7.15444228      -4.04875770       4.93086369
H        8.99645676      -2.93571368       3.75204905
H        7.65813234       0.88210601       5.23479935
H        5.74425063      -0.21357634       6.33421114
C       -0.00445707       0.01189536      -1.78238275
H       -0.66409135       0.67374010      -2.43557963
H        0.65740317      -0.63156657      -2.45157240
C       -0.90989263      -0.90692880      -0.91072765
C        0.90977584       0.90977584      -0.90977584
C       -0.00465871       1.77757030       0.00794375
H       -0.66225468       2.44313916      -0.64384735
H        0.64322798       2.43503045       0.67728295
C       -1.78241447       0.00034974      -0.00472694
H       -2.45427497      -0.65498947       0.64260836
H       -2.43311707       0.67328779      -0.65473579
C       -0.91132561       0.90220522       0.91563759
C       -0.01476271      -0.02253852       1.78660255
H       -0.67934791      -0.69751639       2.42135241
H        0.63392994       0.61504881       2.47327442
C        0.01484550      -1.77751727      -0.01636693
H        0.67870853      -2.42144646      -0.68295456
H       -0.62264859      -2.45592969       0.64226336
C        1.78714474       0.01002794       0.00389507
H        2.44202412       0.67113390       0.66197326
H        2.45385902      -0.65136977      -0.64189061
C        0.91606151      -0.90478549       0.90901405
