181
Properties=species:S:1:pos:R:3 pbc="F F F"
C        0.00000000       0.00000000       0.00000000
O        3.92783109       2.65438179      -8.72344041
C        3.16360351       3.59515922      -7.99203601
C        3.72054338       3.73456824      -6.58344533
C        3.64603523       2.42804910      -5.77709931
N        4.10063507       2.61681807      -4.39988061
C        3.34512473       3.40310178      -3.42987967
H        2.66308781       4.05606507      -3.97581609
C        2.50884164       2.51475392      -2.50891901
C        2.76274233       2.37530258      -1.13141123
C        1.95051378       1.57217214      -0.32259813
C        0.88120431       0.88120431      -0.88120431
C        0.61186859       0.99111898      -2.24043609
C        1.41447646       1.80767521      -3.04343003
C        4.45039467       4.17272614      -2.76870582
C        5.65557214       3.67466356      -3.06985422
O        6.89284041       4.07450964      -2.66212767
C        5.45965591       2.68083435      -4.14231789
O        6.38672553       2.17895542      -4.75501619
C        4.25779225       5.30613328      -1.83950500
O        4.98180471       5.45436870      -0.86034778
C        3.11059204       6.23698552      -2.02619412
C        2.57293565       6.55407610      -3.27988704
C        1.44672604       7.37954758      -3.37490599
C        0.89386587       7.93573545      -2.22234378
C        1.46478958       7.68802853      -0.97707271
C        2.57019584       6.83908550      -0.88054814
H        3.63698315       2.69884603      -9.65110727
H        2.12010213       3.26598654      -7.97127467
H        3.21436120       4.56131651      -8.50553377
H        3.16492037       4.52883163      -6.07410173
H        4.76665135       4.06122935      -6.63492665
H        4.28370890       1.66964209      -6.24594500
H        2.62419585       2.04110509      -5.76165528
H        3.59580055       2.88287265      -0.64768105
H        2.16756173       1.49293415       0.74000723
H       -0.21729555       0.44780803      -2.68630217
H        1.17140208       1.87995854      -4.10012454
H        7.52422354       3.49053007      -3.13011745
H        3.01970026       6.18623103      -4.19842031
H        1.01355340       7.59120930      -4.34974471
H        1.06028189       8.14398563      -0.07684609
H        3.01104736       6.64853533       0.09725664
C       -0.26853069       8.77987441      -2.32165969
C       -1.24203781       9.48684080      -2.40483676
Br      -2.81611648      10.62994564      -2.53932705
O       -2.68751293      -3.88620477      -8.73193558
C       -2.33236154      -4.75019581      -7.66824139
C       -3.16874805      -4.43144584      -6.43836307
C       -2.93597585      -3.00787071      -5.90733708
N       -3.68105432      -2.76351744      -4.67276200
C       -3.34281460      -3.42087017      -3.41442140
H       -2.74791879      -4.30665657      -3.64039360
C       -2.51026722      -2.51447877      -2.50776857
C       -2.98470849      -1.99707833      -1.28766932
C       -2.17403442      -1.19432767      -0.47692196
C       -0.88120431      -0.88120431      -0.88120431
C       -0.38844296      -1.36907708      -2.08590361
C       -1.19437462      -2.18503378      -2.88617330
C       -4.70887375      -3.77677316      -2.90617971
C       -5.67436110      -3.14313109      -3.58259773
O       -7.02660262      -3.18379971      -3.41907540
C       -5.03804394      -2.49803296      -4.74673125
O       -5.67790293      -1.99061102      -5.65218319
C       -4.98221809      -4.66476272      -1.75644974
O       -5.89623833      -4.42663506      -0.97364780
C       -4.08267051      -5.81729611      -1.47380507
C       -3.40587920      -6.52836339      -2.47265620
C       -2.51837927      -7.55434910      -2.12845124
C       -2.35205219      -7.90926432      -0.79062858
C       -3.07572931      -7.25973090       0.20556938
C       -3.93803328      -6.21510841      -0.13668779
H       -2.24205634      -4.21089853      -9.53398158
H       -1.26457000      -4.63470295      -7.45809039
H       -2.51642479      -5.78358469      -7.98120200
H       -2.93306337      -5.16986041      -5.66492994
H       -4.23244695      -4.55153174      -6.67882864
H       -3.26622175      -2.27774940      -6.65532484
H       -1.87366136      -2.83457392      -5.71872094
H       -3.99382764      -2.19998501      -0.93254161
H       -2.56705697      -0.81802251       0.46459083
H        0.61834125      -1.12222563      -2.41293027
H       -0.77607159      -2.55833727      -3.81707630
H       -7.39353778      -2.62044355      -4.13088973
H       -3.56266418      -6.31597729      -3.52571014
H       -1.96926645      -8.07702161      -2.90821936
H       -2.97701907      -7.55211309       1.24801855
H       -4.50016239      -5.71028574       0.64812209
C       -1.43387996      -8.96105410      -0.43806934
C       -0.66491072      -9.84192805      -0.14280098
Br       0.57844750     -11.26622671       0.33462299
O       -4.18751237       8.65989485       2.45824607
C       -5.01289690       7.53950284       2.19839900
C       -4.59294762       6.36996279       3.07564655
C       -3.15724023       5.89671038       2.79723304
N       -2.81564611       4.71432511       3.58736253
C       -3.42428535       3.41050859       3.34331224
H       -4.34780557       3.56355556       2.78360783
C       -2.51434284       2.50757283       2.51059889
C       -1.91405661       1.33908971       3.01630983
C       -1.11128311       0.52796290       2.20603803
C       -0.88120431       0.88120431       0.88120431
C       -1.45213693       2.03481739       0.35646933
C       -2.26778444       2.83462046       1.16317680
C       -3.68829979       2.95519500       4.74833183
C       -3.04397467       3.70892776       5.64718749
O       -3.01152784       3.61190811       7.00604178
C       -2.48951123       4.86913008       4.92416683
O       -1.99822923       5.82890753       5.49356039
C       -4.50318289       1.77945644       5.12079120
O       -4.18244209       1.05595660       6.05812250
C       -5.68180377       1.39700321       4.29496470
C       -6.47384852       2.32531030       3.60773997
C       -7.52255216       1.88811494       2.79051250
C       -7.81724821       0.52815065       2.70654624
C       -7.08447576      -0.39809816       3.44351322
C       -6.01828952       0.03677896       4.23476100
H       -4.57312916       9.42202674       1.99178056
H       -4.93826573       7.28165315       1.13744445
H       -6.05072003       7.81145978       2.41903167
H       -5.30194376       5.55115931       2.91475067
H       -4.67388249       6.65762774       4.13129711
H       -2.45070615       6.69449175       3.05409809
H       -3.02576625       5.66338860       1.73780138
H       -2.05025190       1.02588607       4.05021629
H       -0.66967273      -0.37346482       2.62428074
H       -1.27057694       2.32221086      -0.67597315
H       -2.70707765       3.72433553       0.72007198
H       -2.46777746       4.36746009       7.30963351
H       -6.30746236       3.39388523       3.70300401
H       -8.10951424       2.61332059       2.23167259
H       -7.32841594      -1.45700386       3.40970153
H       -5.44825678      -0.69365639       4.80772565
C       -8.89274264       0.07984122       1.86041955
C       -9.79346923      -0.29561792       1.15178844
Br     -11.24986794      -0.90270359       0.00599187
O        4.05556232      -8.69442272       2.55566825
C        4.89865050      -7.59787196       2.25427628
C        4.52258203      -6.40124001       3.11473492
C        3.09152439      -5.90307183       2.85658743
N        2.79216463      -4.69713597       3.62803315
C        3.42282718      -3.41222740       3.34305159
H        4.33059525      -3.59699552       2.76737819
C        2.51440513      -2.50765511       2.51045433
C        1.95003227      -1.31604086       3.00338302
C        1.14727343      -0.50507646       2.19293416
C        0.88120431      -0.88120431       0.88120431
C        1.41614042      -2.05772343       0.36955980
C        2.23192987      -2.85772282       1.17592902
C        3.72670769      -2.93311139       4.73200755
C        3.08615728      -3.65356808       5.66036457
O        3.08513697      -3.52715313       7.01718763
C        2.49178824      -4.81655135       4.97446855
O        1.99273486      -5.75323306       5.57472922
C        4.57413157      -1.76763975       5.06165921
O        4.28909106      -1.01771690       5.98971324
C        5.74245913      -1.42829251       4.20302004
C        6.49966052      -2.38782257       3.51941570
C        7.53947377      -1.99076934       2.67093650
C        7.86098296      -0.63956987       2.55139226
C        7.16405800       0.31767420       3.28350702
C        6.10625784      -0.07723357       4.10633807
H        4.41480579      -9.47440328       2.09772738
H        4.80658344      -7.36096592       1.18981398
H        5.93501458      -7.88746189       2.45873502
H        5.24509467      -5.60153244       2.92122663
H        4.62020474      -6.66819605       4.17440655
H        2.37399083      -6.67979043       3.14551473
H        2.94215467      -5.68942212       1.79537944
H        2.11512817      -0.98405685       4.02716923
H        0.73396603       0.41432620       2.60084882
H        1.20627806      -2.36289794      -0.65236134
H        2.64263169      -3.76589392       0.74295955
H        2.53221539      -4.26419057       7.34846510
H        6.31280929      -3.45029925       3.64124306
H        8.09875558      -2.74014451       2.11560733
H        7.42955105       1.37011007       3.22167263
H        5.56431341       0.67730185       4.67531448
C        8.92718541      -0.23259770       1.67322030
C        9.82012996       0.10824150       0.93775129
Br      11.26394577       0.65934965      -0.25143991
