146
Properties=species:S:1:pos:R:3 pbc="F F F"
C        1.79177960       1.79177960      -1.79177960
C        1.41057971       2.05735253      -3.10537712
C        2.21730681       2.86321825      -3.91201850
C        3.40356998       3.41516240      -3.40580038
C        3.77992237       3.12665123      -2.08494570
C        2.97431161       2.31988696      -1.27844469
C        4.29093741       4.26520287      -4.28697354
N        5.26226284       3.45955724      -4.98533376
C        5.07149693       2.92485685      -6.23475872
O        4.09959649       3.05069825      -6.96104588
N        6.20126546       2.19243496      -6.55442846
C        7.10488419       2.22461166      -5.52370800
C        8.26611315       1.56084852      -5.56281974
C        9.23129954       1.50138515      -4.51731595
S       10.90692607       1.40821765      -4.94360146
C       11.40657035       1.33775560      -3.31161282
C       10.33127712       1.36214925      -2.46478588
Br      10.44249896       1.29188258      -0.58392673
C        9.08808715       1.43562820      -3.14003331
C        6.48974684       3.11490397      -4.47570128
O        6.98096793       3.47712423      -3.42494819
H        0.49287893       1.64054498      -3.51197484
H        1.91755360       3.05387514      -4.94176128
H        4.70890936       3.52474755      -1.67822581
H        3.27995037       2.10829643      -0.25712044
H        4.81225658       5.01101813      -3.67520010
H        3.67820744       4.81029352      -5.01457549
H        6.29189977       1.68748444      -7.42319610
H        8.51199143       1.01491752      -6.47175673
H       12.45624895       1.27589536      -3.06049878
H        8.12889278       1.44304097      -2.63654634
C       -1.79177960      -1.79177960      -1.79177960
C       -1.96491106      -3.13674305      -1.47165526
C       -2.77078395      -3.94333610      -2.27842351
C       -3.41500830      -3.40644760      -3.40307687
C       -3.21912191      -2.05321373      -3.71918367
C       -2.41240866      -1.24665033      -2.91358427
C       -4.26549225      -4.28553377      -4.29208780
N       -3.47978895      -4.88447539      -5.34288950
C       -2.86923386      -6.11014727      -5.25173137
O       -2.90109037      -6.89323037      -4.31701988
N       -2.18569004      -6.32721369      -6.43522515
C       -2.32377641      -5.25317684      -7.27625059
C       -1.72543806      -5.19272634      -8.47161701
C       -1.77642369      -4.09549400      -9.37808294
S       -1.75530384      -4.42577190     -11.07766944
C       -1.80037491      -2.76806198     -11.48750189
C       -1.80924821      -1.98258082     -10.36638322
Br      -1.84588973      -0.09750166     -10.37491687
C       -1.77632144      -2.72630902      -9.16111821
C       -3.23263221      -4.29140278      -6.55631710
O       -3.67757028      -3.23803084      -6.96743923
H       -1.47588418      -3.56759658      -0.60191799
H       -2.88897568      -4.99672761      -2.02748673
H       -3.69013729      -1.62058026      -4.60116517
H       -2.27322906      -0.20015677      -3.17198141
H       -5.07112665      -3.68984784      -4.73750032
H       -4.73552292      -5.07440196      -3.69315158
H       -1.64099321      -7.16003216      -6.60155492
H       -1.14649755      -6.05499231      -8.79717582
H       -1.81132378      -2.45817311     -12.52314621
H       -1.75648319      -2.27597397      -8.17602293
C       -1.79177960       1.79177960       1.79177960
C       -3.00535244       1.29998465       2.26797227
C       -3.81209409       2.10660956       3.07383990
C       -3.40443467       3.40482150       3.41527660
C       -2.18571970       3.88969282       2.91610678
C       -1.37936472       3.08403432       2.10924423
C       -4.28999036       4.28804566       4.26507779
N       -5.19665095       5.05961094       3.45089195
C       -6.46373816       4.65864583       3.10872849
O       -7.03813679       3.63441605       3.43878777
N       -7.00964946       5.63928214       2.29919727
C       -6.10840091       6.65179563       2.09300730
C       -6.37421488       7.70457877       1.31098777
C       -5.47694375       8.76750503       1.00555185
S       -6.12540526      10.35661204       0.77672789
C       -4.59126133      11.02701159       0.43766586
C       -3.61462328      10.06850019       0.47508878
Br      -1.78484254      10.38498953       0.14847620
C       -4.10948739       8.77615081       0.77811046
C       -4.89400160       6.28219470       2.90415579
O       -3.88146681       6.93379673       3.06777680
H       -3.33430757       0.29528210       2.01580908
H       -4.76531984       1.71789395       3.42997623
H       -1.86026195       4.90309070       3.14853008
H       -0.43760037       3.47485622       1.73291065
H       -3.66961732       4.96874637       4.86011112
H       -4.86423119       3.67191499       4.96693027
H       -7.93503756       5.56305104       1.90449169
H       -7.36406291       7.77129081       0.86331196
H       -4.48759108      12.08156782       0.22348420
H       -3.48803097       7.89032125       0.83012788
C        1.79177960      -1.79177960       1.79177960
C        3.03755408      -2.20849319       1.32726210
C        3.84370481      -3.01545230       2.13338645
C        3.41211541      -3.40108964       3.41132772
C        2.14894219      -2.98403787       3.85853924
C        1.34199161      -2.17827545       3.05237621
C        4.27269031      -4.29703241       4.27339109
N        3.98459504      -5.68965937       4.03289943
C        4.64362580      -6.47062644       3.11686025
O        5.57006540      -6.15043696       2.39083826
N        4.06974184      -7.72944960       3.14893744
C        3.03697968      -7.76617614       4.05004802
C        2.28819843      -8.85819781       4.24338518
C        1.16973349      -8.96132514       5.11894200
S        0.87567242     -10.47341827       5.90965449
C       -0.52590490      -9.88949476       6.69234892
C       -0.77818955      -8.58897709       6.34742471
Br      -2.23426840      -7.57210624       6.98047043
C        0.16881306      -8.05686161       5.43807400
C        3.00237559      -6.39814536       4.67983114
O        2.28726969      -6.01239063       5.58338003
H        3.38847911      -1.91574977       0.34116987
H        4.81013390      -3.34720095       1.75585517
H        1.78306190      -3.29112497       4.83769587
H        0.36731286      -1.86273749       3.41531689
H        4.09793254      -4.06897751       5.33156476
H        5.33201145      -4.10290149       4.06816352
H        4.37520937      -8.47978853       2.54758239
H        2.54762856      -9.75966422       3.69137290
H       -1.09172232     -10.52893711       7.35542831
H        0.11972255      -7.05167187       5.03708567
C       -0.00445707       0.01189536      -1.78238275
H       -0.66409135       0.67374010      -2.43557963
H        0.65740317      -0.63156657      -2.45157240
C       -0.90989263      -0.90692880      -0.91072765
C        0.90977584       0.90977584      -0.90977584
C       -0.00465871       1.77757030       0.00794375
H       -0.66225468       2.44313916      -0.64384735
H        0.64322798       2.43503045       0.67728295
C       -1.78241447       0.00034974      -0.00472694
H       -2.45427497      -0.65498947       0.64260836
H       -2.43311707       0.67328779      -0.65473579
C       -0.91132561       0.90220522       0.91563759
C       -0.01476271      -0.02253852       1.78660255
H       -0.67934791      -0.69751639       2.42135241
H        0.63392994       0.61504881       2.47327442
C        0.01484550      -1.77751727      -0.01636693
H        0.67870853      -2.42144646      -0.68295456
H       -0.62264859      -2.45592969       0.64226336
C        1.78714474       0.01002794       0.00389507
H        2.44202412       0.67113390       0.66197326
H        2.45385902      -0.65136977      -0.64189061
C        0.91606151      -0.90478549       0.90901405
