125
Properties=species:S:1:pos:R:3 pbc="F F F"
C        0.00000000       0.00000000       0.00000000
C        0.88187558       0.88187558      -0.88187558
C        0.50067569       1.14744851      -2.19547309
C        1.30740278       1.95331422      -3.00211448
C        2.49366596       2.50525838      -2.49589635
C        2.87001835       2.21674720      -1.17504168
C        2.06440759       1.40998294      -0.36854067
C        3.38103338       3.35529884      -3.37706951
N        4.35235882       2.54965322      -4.07542973
C        4.16159290       2.01495283      -5.32485469
O        3.18969246       2.14079423      -6.05114185
N        5.29136144       1.28253094      -5.64452443
C        6.19498016       1.31470763      -4.61380397
C        7.35620913       0.65094450      -4.65291571
C        8.32139551       0.59148112      -3.60741193
S        9.99702205       0.49831362      -4.03369744
C       10.49666632       0.42785158      -2.40170880
C        9.42137310       0.45224523      -1.55488185
Br       9.53259494       0.38197855       0.32597730
C        8.17818313       0.52572418      -2.23012929
C        5.57984282       2.20499994      -3.56579726
O        6.07106391       2.56722020      -2.51504417
H       -0.41702510       0.73064096      -2.60207082
H        1.00764958       2.14397111      -4.03185726
H        3.79900534       2.61484353      -0.76832179
H        2.37004634       1.19839240       0.65278358
H        3.90235256       4.10111410      -2.76529608
H        2.76830341       3.90038950      -4.10467147
H        5.38199574       0.77758041      -6.51329207
H        7.60208741       0.10501349      -5.56185270
H       11.54634493       0.36599134      -2.15059475
H        7.21898876       0.53313695      -1.72664231
C       -0.88187558      -0.88187558      -0.88187558
C       -2.23778223      -1.01554103      -0.59027403
C       -3.04408164      -1.82247292      -1.39627692
C       -2.50035697      -2.49135147      -2.50311224
C       -1.13009119      -2.35688965      -2.77482639
C       -0.32323423      -1.55123512      -1.96846185
C       -3.36703729      -3.38657638      -3.35978807
N       -3.37257450      -4.74094961      -2.86391766
C       -4.29151412      -5.23660552      -1.97328078
O       -5.24460494      -4.65533966      -1.48168394
N       -3.95406603      -6.55288422      -1.71146656
C       -2.82040931      -6.90598597      -2.39709649
C       -2.25870025      -8.11540578      -2.28596330
C       -1.05747340      -8.54144124      -2.92137392
S       -0.92271942     -10.19743026      -3.40888343
C        0.66267745      -9.98170875      -4.00719540
C        1.08857944      -8.69378189      -3.82329773
Br       2.78183266      -8.03861497      -4.33181389
C        0.12571843      -7.87056610      -3.18918893
C       -2.44671144      -5.69398115      -3.20994742
O       -1.54588328      -5.58877947      -4.01866553
H       -2.67559905      -0.50140152       0.26131388
H       -4.10006076      -1.93133262      -1.15208457
H       -0.68135102      -2.88599287      -3.61482677
H        0.73565797      -1.45677044      -2.19454270
H       -2.99637304      -3.38068394      -4.39170576
H       -4.39315244      -3.00099048      -3.37922146
H       -4.47623308      -7.12853263      -1.06810251
H       -2.75570249      -8.85376648      -1.65948464
H        1.19852564     -10.80756601      -4.45389065
H        0.29274663      -6.82899914      -2.94251551
C       -0.88187558       0.88187558       0.88187558
C       -1.67992052       0.29936321       1.86431356
C       -2.48684272       1.10569088       2.67029788
C       -2.49191583       2.49871040       2.50419447
C       -1.69262545       3.06817383       1.50100795
C       -0.88664542       2.26226657       0.69401920
C       -3.38572153       3.36953143       3.35814877
N       -4.68136556       3.54641920       2.74965701
C       -5.76737959       2.74290740       2.99111343
O       -5.83884481       1.79156505       3.75121869
N       -6.81091043       3.20123888       2.20626750
C       -6.40957531       4.26875605       1.44516041
C       -7.21942265       4.87285494       0.56779175
C       -6.86467140       5.94968125      -0.29406408
S       -8.06819178       7.13506709      -0.67422576
C       -7.00982277       8.00821080      -1.69180687
C       -5.78223703       7.40625526      -1.75999211
Br      -4.32945015       8.04016855      -2.78102250
C       -5.69420027       6.22412978      -0.98429345
C       -4.97966754       4.53082016       1.84015232
O       -4.25673525       5.43230647       1.46428656
H       -1.68505034      -0.77786006       2.00849639
H       -3.11736901       0.63963561       3.42647334
H       -1.69872719       4.14536279       1.33808068
H       -0.27230900       2.72017206      -0.07682589
H       -2.91668606       4.35015101       3.50192567
H       -3.50690823       2.91706746       4.34938869
H       -7.71735400       2.75826534       2.19724888
H       -8.24786352       4.52350813       0.49758195
H       -7.34350706       8.90834531      -2.18892134
H       -4.80839880       5.60263423      -0.93226501
C        0.88187558      -0.88187558       0.88187558
C        0.93657385      -2.25502688       0.65199656
C        1.74246361      -3.06155387       1.45881400
C        2.50480732      -2.49741852       2.49259485
C        2.42774806      -1.11461731       2.71944186
C        1.62110771      -0.30797563       1.91384785
C        3.35618339      -3.37367443       3.38354392
N        2.61152867      -3.83759199       4.52832110
C        1.91206986      -5.01751771       4.57181285
O        1.81934941      -5.86392124       3.69835790
N        1.30553656      -5.09996838       5.81291186
C        1.58054582      -3.98336530       6.55958064
C        1.07896922      -3.79529927       7.78580086
C        1.27384294      -2.64455292       8.60189270
S        1.35699933      -2.85327011      10.31876368
C        1.54783293      -1.17909077      10.59930300
C        1.52744088      -0.47638777       9.42467153
Br       1.69568773       1.39668044       9.28958890
C        1.35277431      -1.29762027       8.28364202
C        2.49770569      -3.14470590       5.70822843
O        3.04436232      -2.10152659       6.00743937
H        0.35506337      -2.70755600      -0.14693269
H        1.76797231      -4.13573496       1.27977068
H        2.99238112      -0.65811823       3.53167132
H        1.57479914       0.76143278       2.10228880
H        4.23236974      -2.81038407       3.72600892
H        3.72406113      -4.23525012       2.81405313
H        0.71818768      -5.87610781       6.07857274
H        0.46741882      -4.58709163       8.21444315
H        1.65776197      -0.79958516      11.60558389
H        1.29067826      -0.91669771       7.27139205
