114
Properties=species:S:1:pos:R:3 pbc="F F F"
C        0.58062584       6.18875683      -8.65650272
C        0.62300208       5.35126835      -7.40375534
O       -0.36847439       4.74467284      -7.01208523
N        1.86942485       5.33106833      -6.81461805
C        2.28035948       4.66011650      -5.67361672
C        1.50265460       3.89157622      -4.90045136
C        2.04266608       3.22596431      -3.72286006
C        1.23970199       2.41855923      -2.91181236
C        1.79212438       1.79212438      -1.79212438
C        3.13839868       1.96073736      -1.46928463
C        3.94030066       2.76660074      -2.27718219
Br       5.76611853       2.98113541      -1.82063675
C        3.38707480       3.39317668      -3.39738207
O        4.20993521       4.20360894      -4.20338168
C        3.72439091       4.84878166      -5.32879624
O        4.43814860       5.55699262      -6.03608367
H       -0.42771637       6.59125300      -8.78839121
H        0.84049036       5.56472876      -9.51548925
H        1.27554923       7.03105174      -8.59314616
H        2.61421112       5.86417198      -7.26399306
H        0.45203426       3.73164262      -5.11599868
H        0.18743698       2.27547193      -3.14971119
H        3.55792650       1.46779536      -0.59586946
C       -9.64810002      -4.26650676      -1.51127862
C       -8.24974388      -3.71128651      -1.41699538
O       -7.90996450      -3.00409881      -0.47422037
N       -7.44075881      -4.11727001      -2.45708240
C       -6.10633184      -3.82128134      -2.68647952
C       -5.33785771      -3.04364694      -1.91317753
C       -3.94052234      -2.80401749      -2.24695062
C       -3.12928828      -1.99697367      -1.44381163
C       -1.79212438      -1.79212438      -1.79212438
C       -1.25156825      -2.38278908      -2.93406335
C       -2.06006300      -3.18749476      -3.73652583
Br      -1.30516554      -3.98039649      -5.28232867
C       -3.39792171      -3.39213056      -3.38758127
O       -4.20135635      -4.20753511      -4.20803436
C       -5.53283651      -4.45324162      -3.91589068
O       -6.23860508      -5.16439697      -4.62822285
H      -10.34561865      -3.57250678      -1.03380240
H       -9.68684581      -5.23254739      -1.00131518
H       -9.95502344      -4.39099945      -2.55372424
H       -7.84936487      -4.72940588      -3.16360542
H       -5.71672497      -2.56711125      -1.01583934
H       -3.53470983      -1.52913703      -0.54877324
H       -0.20935251      -2.21707357      -3.19516525
C       -1.91251951       3.70630451       9.80706138
C       -1.73652496       3.26516749       8.37633332
O       -0.85171653       2.47704834       8.05951881
N       -2.67825305       3.80847722       7.52838095
C       -2.83426079       3.61495291       6.16487899
C       -2.05583271       2.84447542       5.39437404
C       -2.31572325       2.70799890       3.96776830
C       -1.51113895       1.90297299       3.15596164
C       -1.79212438       1.79212438       1.79212438
C       -2.86767249       2.47548230       1.22526589
C       -3.67061276       3.27952090       2.03394993
Br      -5.12646638       4.19800743       1.24341689
C       -3.38903317       3.39010346       3.39849691
O       -4.20928900       4.20578342       4.20185341
C       -3.98648566       4.35467871       5.56080444
O       -4.69943420       5.06497352       6.26681719
H       -0.94068124       3.70252016      10.30872643
H       -2.58943435       3.01525607      10.31601796
H       -2.31739567       4.72095534       9.86139612
H       -3.37592048       4.43297702       7.93347866
H       -1.21123565       2.29430392       5.79413599
H       -0.66840738       1.36210691       3.58210581
H       -3.07754201       2.38129611       0.16275320
C        9.11746920      -5.45057206       0.85784414
C        7.80671077      -4.70598158       0.86533342
O        7.42346440      -4.08589642      -0.12107714
N        7.11936369      -4.84305324       2.05269429
C        5.88637242      -4.31941271       2.40830756
C        5.11837073      -3.54260341       1.63370803
C        3.83224196      -3.05080179       2.10844670
C        3.02168934      -2.24260389       1.30578035
C        1.79212438      -1.79212438       1.79212438
C        1.35885688      -2.13757470       3.07198909
C        2.16693179      -2.94315407       3.87399773
Br       1.55862173      -3.40072232       5.60854664
C        3.39710912      -3.39361378       3.38691065
O        4.20155938      -4.20652714       4.20883931
C        5.42873114      -4.68874741       3.78449026
O        6.13478978      -5.39892615       4.49750897
H        9.81942229      -4.94017534       0.19233020
H        8.95020804      -6.46996159       0.50053874
H        9.56060971      -5.48177017       1.85736725
H        7.54654155      -5.41170309       2.78413153
H        5.41550781      -3.25201320       0.63215454
H        3.34403826      -1.96427947       0.30430236
H        0.39972176      -1.78190334       3.43996622
C       -0.00445707       0.01189536      -1.78238275
H       -0.66409135       0.67374010      -2.43557963
H        0.65740317      -0.63156657      -2.45157240
C       -0.90989263      -0.90692880      -0.91072765
C        0.90977584       0.90977584      -0.90977584
C       -0.00465871       1.77757030       0.00794375
H       -0.66225468       2.44313916      -0.64384735
H        0.64322798       2.43503045       0.67728295
C       -1.78241447       0.00034974      -0.00472694
H       -2.45427497      -0.65498947       0.64260836
H       -2.43311707       0.67328779      -0.65473579
C       -0.91132561       0.90220522       0.91563759
C       -0.01476271      -0.02253852       1.78660255
H       -0.67934791      -0.69751639       2.42135241
H        0.63392994       0.61504881       2.47327442
C        0.01484550      -1.77751727      -0.01636693
H        0.67870853      -2.42144646      -0.68295456
H       -0.62264859      -2.45592969       0.64226336
C        1.78714474       0.01002794       0.00389507
H        2.44202412       0.67113390       0.66197326
H        2.45385902      -0.65136977      -0.64189061
C        0.91606151      -0.90478549       0.90901405
