153
Properties=species:S:1:pos:R:3 pbc="F F F"
C        0.00000000       0.00000000       0.00000000
C        0.88187464       0.88187464      -0.88187464
C        2.08638196       1.37289692      -0.38317498
C        2.89261022       2.17872546      -1.18982132
C        2.49519466       2.50380644      -2.49584103
C        1.28621165       1.98947898      -2.98775961
C        0.47891107       1.18420950      -2.18106322
C        3.38231080       3.35477136      -3.37602226
N        4.32154965       2.54787024      -4.11553008
C        4.09638390       2.06156775      -5.37865112
O        3.11376986       2.23285261      -6.08141633
N        5.20615971       1.32267951      -5.74781571
C        6.13438577       1.31032054      -4.73874940
C        7.29241902       0.64320310      -4.82841932
C        8.34007906       0.49922159      -3.86932590
C        8.19559383       0.42181810      -2.50324253
N        9.43887814       0.26760416      -1.94951173
H        9.62816195       0.20580780      -0.95860570
C       10.39284430       0.18304541      -2.93709869
C       11.77676357      -0.00475556      -2.83592071
C       12.51192207      -0.05978376      -4.02339671
C       11.87855401       0.07298132      -5.25585254
Br      12.90544589      -0.00961430      -6.84407169
C       10.49593385       0.26590785      -5.34536092
C        9.73103003       0.32078282      -4.15963630
C        5.55480158       2.16675814      -3.64277981
O        6.06688943       2.48655095      -2.58723587
H        2.40896083       1.13253892       0.62639674
H        3.83908557       2.54732114      -0.79593082
H        0.96918369       2.20920576      -4.00646675
H       -0.45623900       0.79640635      -2.57641265
H        3.93240117       4.07490706      -2.75874271
H        2.76571354       3.93077252      -4.07628486
H        5.27353627       0.85067420      -6.63664104
H        7.48336406       0.13258809      -5.77094333
H        7.32518667       0.47092926      -1.86244378
H       12.26732692      -0.10735677      -1.87313387
H       13.58803907      -0.20772533      -3.97131232
H       10.01504122       0.37328068      -6.31203845
C       -0.88187464      -0.88187464      -0.88187464
C       -2.26046445      -0.89965449      -0.68233491
C       -3.06647140      -1.70564422      -1.48904139
C       -2.49771981      -2.50333282      -2.49378950
C       -1.10934038      -2.46300620      -2.69110365
C       -0.30253041      -1.65776535      -1.88388803
C       -3.37521652      -3.35497447      -3.38291343
N       -3.81840650      -2.62277157      -4.54377190
C       -3.16631826      -2.61927064      -5.75101386
O       -2.15058284      -3.22376914      -6.05368682
N       -3.87386654      -1.79507989      -6.60770850
C       -4.96001310      -1.25454258      -5.96890003
C       -5.79927543      -0.39846178      -6.56630423
C       -6.94300180       0.27561568      -6.04124043
C       -7.10318985       0.73777410      -4.75523871
N       -8.32985717       1.34080530      -4.66694216
H       -8.71535307       1.74957628      -3.82679866
C       -8.95338365       1.33358872      -5.89319347
C      -10.19408922       1.85966263      -6.27350213
C      -10.57867417       1.71229151      -7.60915237
C       -9.74979585       1.05988852      -8.51748055
Br     -10.30159222       0.88121424     -10.31952531
C       -8.51459134       0.53301758      -8.12562886
C       -8.10213601       0.67307463      -6.78238777
C       -4.94652344      -1.83809982      -4.57971627
O       -5.76310622      -1.68595168      -3.69161835
H       -2.71768156      -0.28953642       0.09211496
H       -4.14485164      -1.70309789      -1.33438800
H       -0.64870761      -3.05565705      -3.48049155
H        0.77171745      -1.64043027      -2.04786718
H       -4.24936711      -3.69913832      -2.81754551
H       -2.82314434      -4.24667439      -3.70295218
H       -3.58281830      -1.62050671      -7.55752649
H       -5.59764740      -0.17627394      -7.61297414
H       -6.46509150       0.68934368      -3.88281189
H      -10.83806053       2.36730853      -5.56235202
H      -11.53665859       2.11485946      -7.92982693
H       -7.88011175       0.02201201      -8.84226061
C       -0.88187464       0.88187464       0.88187464
C       -0.71992716       0.85724733       2.26527936
C       -1.52600545       1.66394571       3.07120585
C       -2.50275618       2.49321767       2.49886829
C       -2.64329467       2.51693866       1.10321690
C       -1.83798013       1.70955325       0.29665042
C       -3.35623633       3.38506843       3.37179966
N       -2.73148458       4.66718088       3.58628451
C       -2.95342054       5.77518625       2.80799597
O       -3.70113892       5.87763687       1.84926302
N       -2.17001493       6.80116362       3.30547639
C       -1.43502515       6.36912674       4.37930382
C       -0.57271168       7.15972766       5.03160210
C        0.28598813       6.86201909       6.13259559
C        0.92180210       5.66639535       6.37606121
N        1.66461585       5.80171345       7.51889644
H        2.21673437       5.06802657       7.94128324
C        1.57247324       7.08829802       7.99716363
C        2.18184414       7.67866414       9.11110872
C        1.91100424       9.02722898       9.35931028
C        1.06051786       9.74488229       8.52302344
Br       0.71865589      11.57076298       8.88779619
C        0.45243425       9.14374389       7.41589298
C        0.71390422       7.78335994       7.14199343
C       -1.83634789       4.93284524       4.59514641
O       -1.48287573       4.17759522       5.48020530
H        0.03038525       0.21990022       2.72558805
H       -1.38328707       1.64793571       4.15111475
H       -3.37865836       3.17053326       0.63566458
H       -1.96181696       1.73750200      -0.78273896
H       -3.52626297       2.89964667       4.34014130
H       -4.33734208       3.53103035       2.90439848
H       -2.15042710       7.72016002       2.89026438
H       -0.50841167       8.19080536       4.68767845
H        0.91279551       4.72049631       5.85085890
H        2.84406197       7.11581859       9.76134740
H        2.37452810       9.50930142      10.21685274
H       -0.21272488       9.71281481       6.77482066
C        0.88187464      -0.88187464       0.88187464
C        0.30130879      -1.66098803       1.88015703
C        1.10777016      -2.46746751       2.68591933
C        2.49884761      -2.49322613       2.50276839
C        3.06614898      -1.71362295       1.48367830
C        2.26011590      -0.90601925       0.67804864
C        3.36683551      -3.38709997       3.35916893
N        3.50368464      -4.70098428       2.78028105
C        4.52277897      -5.07342375       1.94040004
O        5.46632778      -4.39737936       1.56433167
N        4.30754126      -6.39107584       1.57803784
C        3.15932439      -6.86839447       2.15573685
C        2.70620489      -8.11137960       1.94645696
C        1.52544217      -8.74746320       2.43572118
C        0.30712493      -8.15006348       2.66346605
N       -0.56297266      -9.10915973       3.10980696
H       -1.52380907      -8.94154692       3.37483759
C        0.05072995     -10.34031834       3.12194011
C       -0.46058529     -11.59581046       3.47270355
C        0.39915268     -12.69410846       3.38227389
C        1.71577120     -12.53070088       2.96091580
Br       2.85129664     -14.04115662       2.84745003
C        2.21809653     -11.27090437       2.61820172
C        1.36747353     -10.14654030       2.69743531
C        2.62797825      -5.73789453       2.99846675
O        1.66275029      -5.73986098       3.73806498
H       -0.77403833      -1.65209692       2.03704443
H        0.64360646      -3.08335803       3.45537305
H        4.14092813      -1.73602959       1.30789849
H        2.71584667      -0.30573122      -0.10499789
H        2.92855538      -3.47732796       4.36016760
H        4.35904465      -2.93572696       3.47799930
H        4.92067934      -6.88922743       0.95094473
H        3.32227018      -8.74958879       1.31503651
H       -0.02892713      -7.12675608       2.56073075
H       -1.48764450     -11.71938690       3.80136163
H        0.02477418     -13.68033561       3.64651626
H        3.24788470     -11.15618776       2.29628789
