161
Properties=species:S:1:pos:R:3 pbc="F F F"
C        0.00000000       0.00000000       0.00000000
C        0.88187464       0.88187464      -0.88187464
C        2.08638196       1.37289692      -0.38317498
C        2.89261022       2.17872546      -1.18982132
C        2.49519466       2.50380644      -2.49584103
C        1.28621165       1.98947898      -2.98775961
C        0.47891107       1.18420950      -2.18106322
C        3.38231080       3.35477136      -3.37602226
N        4.32154965       2.54787024      -4.11553008
C        4.09638390       2.06156775      -5.37865112
O        3.11376986       2.23285261      -6.08141633
N        5.20615971       1.32267951      -5.74781571
C        6.13438577       1.31032054      -4.73874940
C        7.29241902       0.64320310      -4.82841932
C        8.34007906       0.49922159      -3.86932590
C        8.19559383       0.42181810      -2.50324253
N        9.43887814       0.26760416      -1.94951173
H        9.62816195       0.20580780      -0.95860570
C       10.39284430       0.18304541      -2.93709869
C       11.77676357      -0.00475556      -2.83592071
C       12.51192207      -0.05978376      -4.02339671
C       11.87855401       0.07298132      -5.25585254
C       10.49593385       0.26590785      -5.34536092
C        9.73103003       0.32078282      -4.15963630
C        5.55480158       2.16675814      -3.64277981
O        6.06688943       2.48655095      -2.58723587
H        2.40896083       1.13253892       0.62639674
H        3.83908557       2.54732114      -0.79593082
H        0.96918369       2.20920576      -4.00646675
H       -0.45623900       0.79640635      -2.57641265
H        3.93240117       4.07490706      -2.75874271
H        2.76571354       3.93077252      -4.07628486
H        5.27353627       0.85067420      -6.63664104
H        7.48336406       0.13258809      -5.77094333
H        7.32518667       0.47092926      -1.86244378
H       12.26732692      -0.10735677      -1.87313387
H       13.58803907      -0.20772533      -3.97131232
H       10.01504122       0.37328068      -6.31203845
C       12.65967302       0.01015386      -6.46395262
C       13.31386018      -0.04246414      -7.47573644
Br      14.37162550      -0.12754299      -9.11170531
C       -0.88187464      -0.88187464      -0.88187464
C       -2.22714712      -1.05246601      -0.56284072
C       -3.03322419      -1.85839348      -1.36953933
C       -2.49683367      -2.50363395      -2.49437452
C       -1.14365139      -2.30993352      -2.80986531
C       -0.33666165      -1.50471502      -2.00280712
C       -3.37777718      -3.35446640      -3.38086084
N       -3.99620094      -2.56860632      -4.42014271
C       -3.46854554      -2.39349079      -5.67456642
O       -2.43751687      -2.86606065      -6.12446128
N       -4.32737960      -1.56951167      -6.37976366
C       -5.38953456      -1.19723224      -5.59668891
C       -6.35634303      -0.37769260      -6.03000582
C       -7.49863637       0.13145130      -5.34144148
C       -7.57255717       0.45908733      -4.00718461
N       -8.83354402       0.92864855      -3.75109857
H       -9.16973561       1.22105745      -2.84389729
C       -9.57115283       0.96976808      -4.91160366
C      -10.88513278       1.40348400      -5.12627995
C      -11.38413035       1.33887387      -6.43027855
C      -10.59341772       0.85453856      -7.46850872
C       -9.28368742       0.41846340      -7.24197861
C       -8.75566863       0.47787935      -5.93365987
C       -5.18789457      -1.89826031      -4.27818465
O       -5.92377067      -1.90675431      -3.31015127
H       -2.65883224      -0.56165780       0.30538702
H       -4.08715107      -1.97539890      -1.11978756
H       -0.71160381      -2.78176100      -3.69149139
H        0.71048114      -1.36757678      -2.25948436
H       -4.15807424      -3.83174229      -2.77623442
H       -2.78239801      -4.15561395      -3.83475895
H       -4.14760153      -1.28319981      -7.33005017
H       -6.27894014      -0.04431242      -7.06364292
H       -6.85023137       0.39580905      -3.20413738
H      -11.49898755       1.78006153      -4.31417800
H      -12.40101819       1.67257298      -6.62318086
H       -8.67947830       0.03811430      -8.05899635
C      -11.13171524       0.80097303      -8.80303729
C      -11.58253941       0.75611189      -9.92070497
Br     -12.31148396       0.68357523     -11.72787909
C       -0.88187464       0.88187464       0.88187464
C       -0.72523870       0.85143986       2.26577529
C       -1.53131409       1.65813880       3.07170412
C       -2.50277735       2.49323241       2.49883237
C       -2.63796184       2.52272616       1.10276223
C       -1.83265035       1.71534548       0.29618796
C       -3.35618670       3.38500956       3.37190816
N       -2.72743602       4.66394218       3.59357177
C       -2.94227145       5.77569260       2.81863871
O       -3.68597904       5.88456309       1.85749667
N       -2.15689855       6.79683235       3.32292404
C       -1.42759157       6.35799588       4.39786826
C       -0.56477998       7.14288335       5.05637812
C        0.28863747       6.83780472       6.15945930
C        0.91903266       5.63888566       6.40080146
N        1.65803470       5.76710739       7.54692134
H        2.20579632       5.02976210       7.96860967
C        1.56892328       7.05222446       8.02968722
C        2.17630280       7.63609949       9.14813203
C        1.90959702       8.98473411       9.40039793
C        1.06497233       9.70872612       8.56363409
C        0.45881391       9.11404850       7.45196804
C        0.71620239       7.75372681       7.17392473
C       -1.83511832       4.92243722       4.60678400
O       -1.48782596       4.16254002       5.49031028
H        0.02093293       0.20954313       2.72649281
H       -1.39273013       1.63753389       4.15207351
H       -3.36909660       3.18084099       0.63491862
H       -1.95231012       1.74781583      -0.78354595
H       -3.53168610       2.89659800       4.33776684
H       -4.33496767       3.53642500       2.90137824
H       -2.13229281       7.71730172       2.91125698
H       -0.49531045       8.17499601       4.71658901
H        0.90845318       4.69500705       5.87200584
H        2.83394476       7.06832194       9.79872684
H        2.37169162       9.46183022      10.26148745
H       -0.20178049       9.68802798       6.81055188
C        0.80910552      11.09752515       8.84535987
C        0.59481707      12.26064434       9.08130522
Br       0.24833077      14.14130970       9.46280888
C        0.88187464      -0.88187464       0.88187464
C        0.33804802      -1.49729892       2.00710691
C        1.14443421      -2.30384462       2.81287817
C        2.49979359      -2.49291037       2.50213817
C        3.02834961      -1.87758404       1.35751657
C        2.22250813      -1.06995785       0.55171781
C        3.36410496      -3.38762391       3.36137554
N        3.31393741      -4.75762991       2.91338265
C        4.19912566      -5.31317904       2.02429806
O        5.15786417      -4.77881941       1.49135522
N        3.82281514      -6.62935057       1.82448923
C        2.70153633      -6.92632905       2.55559033
C        2.11292072      -8.12904910       2.52207163
C        0.93505032      -8.58817259       3.18540365
C       -0.19030326      -7.84714653       3.46381119
N       -1.09583510      -8.66274653       4.08908260
H       -2.00321289      -8.37068694       4.42510140
C       -0.60399689      -9.94482405       4.17216125
C       -1.19256243     -11.10060990       4.69988125
C       -0.45532575     -12.28676159       4.64409918
C        0.81926507     -12.30337265       4.08475015
C        1.40018602     -11.14161655       3.56540005
C        0.67327205      -9.93168293       3.60649416
C        2.37148790      -5.67134307       3.32150857
O        1.49351968      -5.50161088       4.14554570
H       -0.70912655      -1.36060113       2.26362844
H        0.70729664      -2.79165998       3.68338091
H        4.07169292      -2.02939605       1.08376724
H        2.64838738      -0.59799279      -0.32980017
H        3.02685397      -3.33580170       4.40339527
H        4.40167294      -3.03377147       3.33732650
H        4.31655761      -7.24647467       1.19781922
H        2.59580171      -8.88553723       1.90555653
H       -0.43655498      -6.80860539       3.28650930
H       -2.18647047     -11.08380088       5.13577361
H       -0.89184833     -13.19860516       5.04486923
H        2.39666254     -11.16684215       3.13685565
C        1.55609741     -13.53969436       4.03798773
C        2.17319449     -14.57511380       3.99882419
Br       3.17098829     -16.24929945       3.93550007
