174
Properties=species:S:1:pos:R:3 pbc="F F F"
O        1.58963476      -0.96507170      -7.00426316
C        1.08550185      -0.64257779      -5.92696248
N        1.83406803       0.07640212      -5.02102166
N        1.37423523       0.41102384      -3.78524913
C        2.08992766       1.29254239      -3.15633782
C        1.78143460       1.78143460      -1.78143460
C        2.26402574       2.94889284      -1.32405885
C        3.04854520       3.91770786      -2.09199894
C        2.39731902       4.85592282      -2.90174091
C        3.13661959       5.79577291      -3.62182656
C        4.52799108       5.79969972      -3.53896767
C        5.18161986       4.86334217      -2.73804357
C        4.44448512       3.92344013      -2.01414564
C       -0.34909416      -0.98006047      -5.52034060
O       -1.13914558      -1.17789583      -6.69064265
C       -2.47250253      -1.41421088      -6.51177016
C       -3.23123449      -1.38726174      -7.68628813
C       -4.60647353      -1.62889996      -7.65343319
C       -5.22407908      -1.90462796      -6.43706656
C       -4.47895409      -1.93439642      -5.25940773
C       -3.10165582      -1.68747945      -5.29633663
H        2.77169653       0.32847214      -5.31619809
H        2.97300286       1.74875780      -3.63838655
H        2.03186800       3.27410457      -0.31152706
H        1.31131500       4.87183419      -2.96978744
H        2.62670677       6.52943319      -4.24214567
H        5.10275049       6.53661855      -4.09452886
H        6.26697596       4.87150321      -2.67210172
H        4.96868319       3.20627781      -1.38652183
H       -0.76810912      -0.15335554      -4.93630622
H       -0.30939437      -1.90017254      -4.92627374
H       -2.74389872      -1.17555609      -8.63592037
H       -5.17768418      -1.60312620      -8.57712581
H       -4.95724250      -2.15365557      -4.30817587
H       -2.55082780      -1.72706178      -4.36264744
C       -6.63974372      -2.16492730      -6.39537880
C       -7.82536286      -2.38292800      -6.36046531
Br      -9.74240873      -2.73541669      -6.30401314
O       -5.77723806       2.02609815      -3.87768632
C       -4.64572440       1.75048300      -3.47464513
N       -4.38289384       0.47539629      -3.02399427
N       -3.18117497       0.11132787      -2.50066110
C       -3.01206707      -1.16778938      -2.35895143
C       -1.78143460      -1.78143460      -1.78143460
C       -1.45717256      -3.06399820      -2.01580667
C       -2.17045748      -3.98555209      -2.90224243
C       -1.89486361      -3.98526137      -4.27485776
C       -2.55592290      -4.87407051      -5.12422565
C       -3.49661596      -5.76307758      -4.60696493
C       -3.77875249      -5.76325831      -3.24099480
C       -3.11690332      -4.87701074      -2.38815683
C       -3.48246903       2.74223767      -3.45095460
O       -3.70635860       3.75844966      -4.42569231
C       -2.72245025       4.69089093      -4.59349744
C       -2.89689396       5.52872056      -5.69961851
C       -1.97497742       6.53914327      -5.98222555
C       -0.87464557       6.71453430      -5.14824825
C       -0.68948407       5.88607589      -4.04264904
C       -1.61363770       4.87196279      -3.76552644
H       -5.15090858      -0.18554390      -3.07991428
H       -3.78891171      -1.87891910      -2.69231641
H       -0.55886651      -3.48798259      -1.57065053
H       -1.15642726      -3.30379526      -4.69271411
H       -2.33198806      -4.87769212      -6.18860545
H       -4.00585145      -6.45993790      -5.26810855
H       -4.51005749      -6.46081030      -2.83971310
H       -3.34106532      -4.89640000      -1.32401751
H       -2.54927040       2.21746014      -3.68303130
H       -3.44869319       3.17785793      -2.44587157
H       -3.76079997       5.39114362      -6.34680920
H       -2.12884570       7.17904782      -6.84651756
H        0.16645124       6.02293072      -3.38665976
H       -1.44362125       4.25118619      -2.89232280
C        0.07540096       7.76030469      -5.42641343
C        0.87106493       8.63613740      -5.65937677
Br       2.15758628      10.05228480      -6.03605879
O       -3.06170547      -1.76085973       6.32798050
C       -2.31139732      -1.37236382       5.43085304
N       -2.74176412      -0.38365605       4.57338375
N       -2.00139546       0.05096077       3.51815196
C       -2.42764742       1.14545942       2.96570104
C       -1.78143460       1.78143460       1.78143460
C       -1.96926862       3.07912561       1.48858319
C       -2.72061440       4.04459114       2.29304646
C       -2.09642097       4.69337251       3.36518927
C       -2.79939303       5.62976829       4.12505773
C       -4.12833036       5.91866000       3.81966811
C       -4.75626739       5.27071183       2.75602640
C       -4.05465431       4.33530789       1.99210869
C       -0.89927532      -1.91280230       5.20471295
O       -0.39573948      -2.44849452       6.42635629
C        0.89043355      -2.90831334       6.42380365
C        1.39936772      -3.22116166       7.68832129
C        2.69667828      -3.71802472       7.83276270
C        3.48671302      -3.90769949       6.70277202
C        2.99109489      -3.59972431       5.43687642
C        1.69185475      -3.09801534       5.29707144
H       -3.66533025      -0.00474832       4.75578483
H       -3.30177022       1.68081327       3.37756373
H       -1.49422137       3.51282625       0.61045201
H       -1.05672451       4.48569080       3.61052132
H       -2.30812687       6.13905995       4.95109881
H       -4.67300060       6.65338054       4.40751676
H       -5.79183774       5.50120829       2.51753487
H       -4.55563133       3.84594871       1.15990278
H       -0.24568954      -1.10013601       4.86928804
H       -0.97115804      -2.69849535       4.44404415
H        0.77700565      -3.07551406       8.56898526
H        3.07301663      -3.95465653       8.82398860
H        3.60379156      -3.75065161       4.55172097
H        1.33493927      -2.87709475       4.29679188
C        4.82181681      -4.42906920       6.84159379
C        5.93996623      -4.86571634       6.95785702
Br       7.74791929      -5.57173783       7.14584483
O        3.32517203       1.86068556       6.16433977
C        2.53338686       1.46868763       5.30518731
N        2.90304121       0.43918518       4.46763578
N        2.11445216      -0.00429596       3.45176008
C        2.48672518      -1.12953627       2.92254643
C        1.78143460      -1.78143460       1.78143460
C        1.91763473      -3.09338907       1.52595363
C        2.66386262      -4.05691861       2.33747077
C        2.05508859      -4.64981932       3.45007484
C        2.75244783      -5.58413704       4.21763419
C        4.06053862      -5.92666754       3.87945231
C        4.67330779      -5.33445023       2.77524760
C        3.97713974      -4.40129857       2.00363259
C        1.13263365       2.04817514       5.10672745
O        0.68742216       2.63928053       6.32545962
C       -0.58268274       3.14123806       6.34897756
C       -1.03902523       3.51129492       7.61811206
C       -2.31418369       4.05535137       7.78759476
C       -3.13480356       4.23474137       6.67790445
C       -2.69165203       3.86995037       5.40765961
C       -1.41456783       3.32113811       5.24290730
H        3.81949967       0.03587433       4.63274141
H        3.35638504      -1.68010920       3.32365298
H        1.39999431      -3.53907392       0.67843141
H        1.03132508      -4.39994760       3.72166394
H        2.27276955      -6.05002116       5.07549492
H        4.60053451      -6.65979725       4.47356613
H        5.69244349      -5.60675544       2.51138196
H        4.46567314      -3.95584625       1.13996344
H        0.44248798       1.24730124       4.81965482
H        1.20443109       2.80619355       4.31846929
H       -0.39276362       3.37343983       8.48266900
H       -2.64959729       4.33608619       8.78199892
H       -3.32823802       4.01261418       4.53813000
H       -1.09835204       3.05645175       4.23956165
C       -4.44711384       4.80435274       6.84217437
C       -5.54617371       5.28140227       6.97975042
Br      -7.32326055       6.05275101       7.20219927
C       -0.00445707       0.01189536      -1.78238275
H       -0.66409135       0.67374010      -2.43557963
H        0.65740317      -0.63156657      -2.45157240
C       -0.90989263      -0.90692880      -0.91072765
C        0.90977584       0.90977584      -0.90977584
C       -0.00465871       1.77757030       0.00794375
H       -0.66225468       2.44313916      -0.64384735
H        0.64322798       2.43503045       0.67728295
C       -1.78241447       0.00034974      -0.00472694
H       -2.45427497      -0.65498947       0.64260836
H       -2.43311707       0.67328779      -0.65473579
C       -0.91132561       0.90220522       0.91563759
C       -0.01476271      -0.02253852       1.78660255
H       -0.67934791      -0.69751639       2.42135241
H        0.63392994       0.61504881       2.47327442
C        0.01484550      -1.77751727      -0.01636693
H        0.67870853      -2.42144646      -0.68295456
H       -0.62264859      -2.45592969       0.64226336
C        1.78714474       0.01002794       0.00389507
H        2.44202412       0.67113390       0.66197326
H        2.45385902      -0.65136977      -0.64189061
C        0.91606151      -0.90478549       0.90901405
