141
Properties=species:S:1:pos:R:3 pbc="F F F"
C        0.00000000       0.00000000       0.00000000
N        3.22540833       0.11386862      -5.01787119
C        2.79388311       0.61181390      -4.06022534
C        2.24441123       1.17025510      -2.85839891
C        1.42586637       0.36373101      -2.05374514
C        0.88098392       0.88098392      -0.88098392
C        1.13420389       2.19749387      -0.50678916
C        1.95246531       3.00294399      -1.30341601
C        2.53186908       2.48953969      -2.47037529
O        3.35008698       3.21749653      -3.29502442
C        4.13729263       4.23342137      -2.67768048
C        3.49770841       5.62389876      -2.72699195
O        2.68480440       5.96765297      -3.58573069
N        3.86693633       6.51778937      -1.74693510
N        4.69631710       6.17967733      -0.72470708
C        5.00235807       7.07210022       0.17771877
C        4.46803367       8.49094833       0.16503996
C        5.91614858       6.64549966       1.23155530
C        6.16058066       5.34875379       1.65885771
C        7.13202024       5.28337854       2.70246586
C        7.60537373       6.53186096       3.01048239
S        6.90344710       7.76086740       2.08383726
H        1.21847586      -0.66406050      -2.34621594
H        0.69558535       2.61093668       0.39823978
H        2.10861227       4.03137008      -0.99314909
H        5.06464554       4.30533222      -3.25823372
H        4.43162920       3.93926455      -1.66442558
H        3.45410928       7.44101469      -1.82064306
H        4.95515455       9.05165061      -0.63778252
H        4.62840555       9.00917830       1.11238032
H        3.38749518       8.48193432      -0.00672223
H        5.65574281       4.48332088       1.24408588
H        7.45882550       4.36896474       3.18274383
C        8.60434349       6.77837419       4.01790019
C        9.44098067       6.98482902       4.86161261
Br      10.79375223       7.31864902       6.22582422
N       -3.12442921      -5.08035263      -0.15236630
C       -2.73061446      -4.09937320      -0.63593469
C       -2.20566393      -2.88237404      -1.18502728
C       -1.40436548      -2.06704894      -0.37192810
C       -0.88098392      -0.88098392      -0.88098392
C       -1.15665664      -0.49289639      -2.18893390
C       -1.95100668      -1.30431855      -3.00350008
C       -2.46095262      -2.51425528      -2.51657616
O       -3.23934327      -3.36354775      -3.25971690
C       -3.00328930      -3.37935190      -4.66575328
C       -3.93444499      -2.45675855      -5.45739558
O       -5.05231212      -2.12082096      -5.06505498
N       -3.47282466      -1.99079408      -6.66804206
N       -2.22029539      -2.25676049      -7.12364563
C       -1.84031419      -1.77881502      -8.27761032
C       -2.72346459      -0.91442271      -9.15605474
C       -0.49197888      -2.12468252      -8.71343154
C        0.57650700      -2.50975604      -7.91722769
C        1.75412632      -2.79589108      -8.67116815
C        1.52676612      -2.64008439     -10.01343402
S       -0.05351944      -2.15459692     -10.37236087
H       -1.19241969      -2.36233835       0.65412674
H       -0.76547801       0.44148628      -2.58429053
H       -2.16467826      -0.95845792      -4.00999527
H       -3.22299350      -4.39776707      -5.00745092
H       -1.94513847      -3.20295676      -4.88722410
H       -4.12059856      -1.40824879      -7.18691968
H       -3.50294755      -1.53634439      -9.60529575
H       -2.16538305      -0.41162976      -9.94819073
H       -3.19164512      -0.12790563      -8.55660097
H        0.51657887      -2.57507551      -6.83648118
H        2.70017941      -3.10320192      -8.24202390
C        2.52796381      -2.87028230     -11.02249899
C        3.36646687      -3.06307305     -11.86759091
Br       4.72225540      -3.37479938     -13.23403305
N       -2.62997314       0.38586367       5.34131133
C       -2.37526851       0.80373998       4.28691386
C       -2.03939588       1.26354416       2.97012520
C       -1.22081453       0.45860650       2.16392149
C       -0.88098392       0.88098392       0.88098392
C       -1.33934992       2.10266051       0.39647650
C       -2.15841698       2.90555456       1.19485377
C       -2.53340966       2.48235972       2.47601469
O       -3.33947014       3.21243392       3.31070388
C       -4.31333023       4.04711165       2.68795260
C       -3.85360369       5.49557133       2.49942410
O       -2.99957833       6.03441903       3.20419070
N       -4.44077586       6.21094572       1.47993922
N       -5.33010863       5.65509614       0.61549674
C       -5.84610475       6.38595277      -0.33531800
C       -5.49782584       7.84591600      -0.54979980
C       -6.81096671       5.72941108      -1.21028485
C       -6.93555266       4.36980201      -1.45487793
C       -8.00184817       4.06409685      -2.35301210
C       -8.66112304       5.20239932      -2.73677006
S       -8.02100541       6.60986887      -2.05039705
H       -0.85336968      -0.49401689       2.54127851
H       -1.06104160       2.44471630      -0.59747565
H       -2.47743600       3.86230144       0.79339401
H       -5.17123709       4.08743035       3.36954404
H       -4.67990152       3.59578485       1.75963296
H       -4.14259783       7.17653095       1.39663825
H       -5.95882771       8.44555358       0.24020640
H       -5.82788963       8.21864244      -1.52132853
H       -4.41245627       7.98009638      -0.51640093
H       -6.28179288       3.62608088      -1.01289595
H       -8.26200446       3.06534341      -2.68230146
C       -9.79000271       5.20557623      -3.63076145
C      -10.73543943       5.20823689      -4.37947923
Br     -12.26413065       5.21253896      -5.59009257
N        3.08519944      -5.10377490       0.16817380
C        2.70304301      -4.11588160       0.64699774
C        2.19215220      -2.89041717       1.19049587
C        1.39087065      -2.07518645       0.37728542
C        0.88098392      -0.88098392       0.88098392
C        1.17015873      -0.48476022       2.18356798
C        1.96453496      -1.29602113       2.99826922
C        2.46097453      -2.51381123       2.51699830
O        3.23852197      -3.36337849       3.26070747
C        3.01358593      -3.36615732       4.66865123
C        3.95831375      -2.44478654       5.44549883
O        5.07563847      -2.12090549       5.04164410
N        3.51008209      -1.96557389       6.65600481
N        2.25916328      -2.21791163       7.12362659
C        1.89220787      -1.72781975       8.27671191
C        2.78916551      -0.86357529       9.14120124
C        0.54469810      -2.05944516       8.72594968
C       -0.53312917      -2.44226957       7.94133633
C       -1.70692011      -2.71300932       8.70684371
C       -1.46762097      -2.54839409      10.04597918
S        0.11927715      -2.07271347      10.38848661
H        1.16840506      -2.37689351      -0.64466726
H        0.78956465       0.45581937       2.57453697
H        2.18897067      -0.94391481       4.00024597
H        3.22793659      -4.38355546       5.01671943
H        1.95866815      -3.17956865       4.89708254
H        4.16657380      -1.38412762       7.16506561
H        3.56725952      -1.48812326       9.58920490
H        2.24142841      -0.35008181       9.93369332
H        3.25876048      -0.08559588       8.53179535
H       -0.48235287      -2.51662564       6.86070504
H       -2.65877503      -3.01614568       8.28767577
C       -2.46252093      -2.76258788      11.06475054
C       -3.29574964      -2.94197518      11.91797155
Br      -4.64301001      -3.23202927      13.29755777
