189
Properties=species:S:1:pos:R:3 pbc="F F F"
C        0.00000000       0.00000000       0.00000000
C        0.88132242       0.88132242      -0.88132242
C        2.19205400       1.15641631      -0.49792545
C        3.00052809       1.96313385      -1.30560755
C        2.50944609       2.49347541      -2.50748155
C        1.17540250       2.22248643      -2.86292161
C        0.36725039       1.41378460      -2.05876668
N        3.31114335       3.34188353      -3.35471681
C        4.61298570       2.98644140      -3.73495056
S        5.42053937       1.52977008      -3.49437461
N        5.31731148       3.92056117      -4.45091108
C        4.84676239       5.06265112      -5.03329837
O        5.55108173       5.73203892      -5.78165474
C        3.43752529       5.36111015      -4.73348504
C        2.86065920       6.34051214      -5.45858065
C        1.50274643       6.76558599      -5.40443567
C        0.42680080       6.19086086      -6.10060150
C       -0.71186644       6.90740036      -5.78232555
C       -2.07244416       6.70708345      -6.36000688
N       -0.35379116       7.92601341      -4.89433034
C       -1.22866610       8.92053871      -4.35487434
C       -2.51321489       8.57440112      -3.91544812
C       -3.36749148       9.55330208      -3.39640415
C       -2.93607076      10.87535466      -3.31112770
Br      -4.09018500      12.19675269      -2.60595712
C       -1.66039798      11.23037975      -3.74200794
C       -0.80816989      10.25458249      -4.26682499
C        1.01986582       7.81793373      -4.64957666
C        1.76169642       8.63761151      -3.64345774
C        2.73037853       4.57975510      -3.68798866
O        1.74434389       5.04229069      -3.11253333
H        2.59089921       0.75839427       0.43204892
H        4.00283529       2.19621030      -0.95581426
H        0.75020030       2.63392378      -3.77629488
H       -0.65814584       1.21485042      -2.36053284
H        6.25940138       3.66565442      -4.72627989
H        3.45946343       6.86973198      -6.19917917
H        0.46306597       5.35196499      -6.78443492
H       -2.00840238       6.13898290      -7.29435788
H       -2.55907948       7.65667307      -6.59789960
H       -2.70264535       6.13225766      -5.67530607
H       -2.85587238       7.54388620      -3.92230690
H       -4.35960807       9.27119560      -3.05307601
H       -1.32181489      12.26117293      -3.68268196
H        0.16306773      10.56555966      -4.63886738
H        2.61715840       8.08341490      -3.24114305
H        1.13617926       8.89892024      -2.78478810
H        2.15121758       9.55104635      -4.10232435
C       -0.88132242      -0.88132242      -0.88132242
C       -2.26668610      -0.83844500      -0.74126466
C       -3.07492677      -1.64506212      -1.54928059
C       -2.50641825      -2.49366656      -2.51031825
C       -1.10432714      -2.53863016      -2.61785325
C       -0.29536777      -1.73079202      -1.81364187
N       -3.31008902      -3.34990630      -3.34774837
C       -4.42186904      -2.86295360      -4.04955502
S       -4.93326158      -1.27110038      -4.24032209
N       -5.17263760      -3.79081590      -4.72533023
C       -4.86002282      -5.09380099      -4.98888808
O       -5.54935992      -5.77379872      -5.74161675
C       -3.61899423      -5.56146292      -4.35166332
C       -3.14510546      -6.75640716      -4.75823938
C       -1.93766420      -7.38880986      -4.34629403
C       -0.66090998      -7.16875792      -4.88859527
C        0.22845427      -7.98796235      -4.21835139
C        1.67960952      -8.15237079      -4.52188492
N       -0.48441958      -8.71878608      -3.26334693
C        0.05428055      -9.71317550      -2.38785200
C        1.28712214      -9.50967073      -1.75408575
C        1.81282972     -10.48976961      -0.90527486
C        1.10424165     -11.66910863      -0.68554463
Br       1.81400920     -12.99133306       0.46479904
C       -0.12341251     -11.88089712      -1.30768007
C       -0.64680522     -10.90535592      -2.16107645
C       -1.82554696      -8.32561148      -3.33621777
C       -2.88611122      -8.77376021      -2.38289424
C       -2.95471933      -4.71157543      -3.33182754
O       -2.20312251      -5.20577609      -2.49026930
H       -2.72732886      -0.19043077       0.00051507
H       -4.14888562      -1.62218968      -1.38378455
H       -0.62402655      -3.20060921      -3.33578319
H        0.78529894      -1.78037875      -1.92215761
H       -5.97763853      -3.44069682      -5.23300033
H       -3.70471271      -7.31816392      -5.50549794
H       -0.40063507      -6.49958505      -5.69924576
H        1.89938856      -7.79174897      -5.53257797
H        1.98870952      -9.20029366      -4.48390906
H        2.28870804      -7.56395392      -3.82967251
H        1.83527437      -8.57893052      -1.86666457
H        2.76744329     -10.31755433      -0.41455250
H       -0.67677799     -12.80154634      -1.14371566
H       -1.58245273     -11.11501341      -2.67002862
H       -3.66186835      -8.00778082      -2.27206717
H       -2.48791808      -8.95228876      -1.37968076
H       -3.37411273      -9.68195745      -2.74851810
C       -0.88132242       0.88132242       0.88132242
C       -0.91777155       2.25791298       0.67071123
C       -1.72596765       3.06597902       1.47732281
C       -2.51165648       2.50442865       2.49431792
C       -2.44084640       1.11514153       2.70482261
C       -1.63644829       0.30580172       1.89755165
N       -3.34289364       3.31086459       3.35398546
C       -4.22467517       4.27126940       2.83843309
S       -4.64924477       4.55965560       1.23578368
N       -4.88214772       5.05194172       3.75469429
C       -4.96163597       4.87463961       5.10643630
O       -5.71452358       5.55591545       5.79433636
C       -4.12981108       3.77732781       5.62498158
C       -4.34238219       3.41208463       6.90528518
C       -3.71892814       2.34353488       7.61030507
C       -4.12127208       0.99794677       7.59904431
C       -3.26165984       0.29425130       8.42194832
C       -3.36514041      -1.15016563       8.77967139
N       -2.32732296       1.19128365       8.94794599
C       -1.28914486       0.87737538       9.88022671
C       -0.53495655      -0.29456334       9.73624114
C        0.47374681      -0.60031928      10.65628084
C        0.73224028       0.26728592      11.71536596
Br       2.09828690      -0.14517221      12.95598392
C       -0.00893501       1.43639254      11.86666216
C       -1.02138049       1.73992379      10.95193331
C       -2.60660173       2.45804102       8.42273346
C       -1.74740916       3.66319073       8.63216578
C       -3.13504807       3.12907542       4.73399881
O       -2.15880026       2.54010290       5.20026474
H       -0.31325208       2.71374543      -0.10975295
H       -1.69694411       4.14061815       1.31729758
H       -3.01790490       0.64423274       3.49828131
H       -1.60552733      -0.76596124       2.07767134
H       -5.51986881       5.74769244       3.38377443
H       -5.08686064       3.95148377       7.49003016
H       -4.96200342       0.57068395       7.06677851
H       -4.37450655      -1.52145852       8.57189036
H       -3.17544253      -1.32239092       9.84244159
H       -2.67179924      -1.74766004       8.18077919
H       -0.68031047      -0.96172624       8.89173649
H        1.05611769      -1.50957167      10.53035290
H        0.18536710       2.11306609      12.69434099
H       -1.61532274       2.63307132      11.11910070
H       -1.81680451       4.34655957       7.77835227
H       -0.68948585       3.40174302       8.72865872
H       -2.06885200       4.21608437       9.51965191
C        0.88132242      -0.88132242       0.88132242
C        0.65180691      -0.94049233       2.25409652
C        1.45842065      -1.74870898       3.06213986
C        2.49442367      -2.51179802       2.50418137
C        2.72351931      -2.41809348       1.11919775
C        1.91631883      -1.61366511       0.30981772
N        3.35443622      -3.34227726       3.31103022
C        2.83805542      -4.24495013       4.25137210
S        1.23774358      -4.69623820       4.51070228
N        3.75252161      -4.90052996       5.03573216
C        5.10763736      -4.95833987       4.87673466
O        5.79656345      -5.71111925       5.55709268
C        5.62966352      -4.10360702       3.79884994
C        6.91792282      -4.29278684       3.44904233
C        7.62896836      -3.64415775       2.39964199
C        7.64251364      -4.02727472       1.04847481
C        8.46287095      -3.14610246       0.36888606
C        8.84243531      -3.22378008      -1.07156921
N        8.96267003      -2.21738504       1.28649753
C        9.88430703      -1.16172830       1.00071162
C        9.74610613      -0.39291621      -0.16238799
C       10.65581215       0.63298168      -0.44061572
C       11.69870275       0.89395482       0.44566368
Br      12.92530446       2.28318840       0.07040875
C       11.84406616       0.13829715       1.60622070
C       10.93975506      -0.89123507       1.88224747
C        8.42365424      -2.52220918       2.54151279
C        8.60367239      -1.67751863       3.76157465
C        4.73375877      -3.11234742       3.15201611
O        5.19425446      -2.12125331       2.58366014
H       -0.14361879      -0.35367379       2.70718957
H        1.28281221      -1.73737207       4.13467557
H        3.53175616      -2.97705655       0.65160625
H        2.11111697      -1.56482674      -0.75870628
H        3.38098571      -5.55334943       5.71700055
H        7.50560078      -5.03658232       3.98619147
H        7.12846053      -4.86923383       0.60177152
H        8.65442883      -4.23055336      -1.46004380
H        9.90470418      -3.01661842      -1.22582941
H        8.24216831      -2.53047813      -1.66772805
H        8.91329430      -0.54061349      -0.84358708
H       10.53441487       1.22649795      -1.34325338
H       12.65921882       0.33455825       2.29737942
H       11.10277721      -1.49550604       2.76921151
H        7.74136243      -1.76877993       4.43157399
H        8.68866598      -0.61469440       3.51652722
H        9.48777009      -1.99427609       4.32254210
