185
Properties=species:S:1:pos:R:3 pbc="F F F"
C        0.00000000       0.00000000       0.00000000
C        0.88176168       0.88176168      -0.88176168
C        1.46708616       0.34731799      -2.02858380
C        2.27985983       1.15237208      -2.83013744
C        2.50144714       2.48978096      -2.48547577
C        1.91140367       3.01750167      -1.33293797
C        1.09923029       2.21316094      -0.53020447
C        3.39132149       3.31857366      -3.29441169
H        2.91816704       3.93013910      -4.05925416
C        4.81894514       3.39504851      -3.17187750
C        5.62458159       2.77535802      -2.30058714
C        7.00357758       3.12711288      -2.52693020
C        8.14221537       2.75901683      -1.67772575
C        8.27816474       1.43316584      -1.23927101
C        9.32972658       1.06308825      -0.39737842
C       10.26042329       2.01380048       0.01377844
C       10.13739207       3.33453722      -0.41136329
C        9.08001647       3.70665577      -1.24559514
N        7.01607421       4.02982041      -3.57762710
C        5.70508125       4.21545078      -4.05012976
O        5.29503713       4.85500150      -5.00664611
C        8.13729993       4.55352128      -4.27821718
C        9.18119452       3.67790418      -4.63008379
C       10.28205899       4.12249303      -5.36540611
C       10.35303910       5.45351534      -5.75460901
C        9.34302040       6.34455505      -5.39909157
C        8.23511983       5.91406256      -4.64226727
C        7.23295411       6.96157180      -4.23567185
H        1.30051039      -0.69046045      -2.30496558
H        2.73916312       0.72885857      -3.72077864
H        2.08455220       4.05340120      -1.04960854
H        0.64676807       2.63240150       0.36452636
H        5.30364966       2.10823463      -1.51432338
H        7.56463065       0.67216710      -1.54824658
H        9.41948631       0.03329809      -0.06085487
H       11.07885979       1.72692455       0.66914989
H       10.86064284       4.07935763      -0.08890261
H        8.99430191       4.74851387      -1.54629327
H        9.12823737       2.62304855      -4.37072113
H       11.06401998       3.41935483      -5.63843693
H        9.41644682       7.38852597      -5.69801485
H        6.68190813       6.67618187      -3.33490714
H        6.52994237       7.15449319      -5.05097420
H        7.74380804       7.90025029      -3.99123094
C       11.47958300       5.91655631      -6.52278341
C       12.42306351       6.30435313      -7.16612946
Br      13.94859171       6.93138779      -8.20636563
C       -0.88176168      -0.88176168      -0.88176168
C       -0.98577112      -0.61174395      -2.24547288
C       -1.79874977      -1.41390100      -3.04971857
C       -2.50152700      -2.48571086      -2.48946602
C       -2.39240447      -2.74885281      -1.12058604
C       -1.58047706      -1.94684337      -0.31527526
C       -3.39119281      -3.29403288      -3.31908115
H       -2.96828201      -4.20677685      -3.73250143
C       -4.75811925      -2.99282526      -3.63492662
C       -5.50945338      -1.96168597      -3.22938740
C       -6.83625887      -2.03439663      -3.78696516
C       -7.96771905      -1.16406355      -3.44717536
C       -7.78056379       0.22550943      -3.39554724
C       -8.82952710       1.07505126      -3.03571741
C      -10.07975272       0.54561570      -2.72630832
C      -10.28031008      -0.83206889      -2.77091361
C       -9.22842091      -1.68245105      -3.12139543
N       -6.88480737      -3.19121888      -4.54749548
C       -5.62553647      -3.81597498      -4.52915034
O       -5.22473560      -4.79970056      -5.13224858
C       -7.91734771      -3.63074714      -5.42094354
C       -8.52244050      -2.69091949      -6.27582250
C       -9.50338211      -3.07322667      -7.19334936
C       -9.89417130      -4.40384674      -7.26314541
C       -9.32594377      -5.34882334      -6.41189991
C       -8.34795282      -4.97441206      -5.46908477
C       -7.84781882      -6.04563988      -4.53673906
H       -0.44329805       0.21839751      -2.69011498
H       -1.88123595      -1.19531132      -4.11225306
H       -2.94196336      -3.57355689      -0.67204170
H       -1.50390772      -2.15862277       0.74788728
H       -5.18887994      -1.17647750      -2.56085021
H       -6.81346951       0.66293521      -3.63451004
H       -8.66864707       2.14937934      -2.99437155
H      -10.89655722       1.20579121      -2.44586844
H      -11.25443859      -1.24811325      -2.52635125
H       -9.40516356      -2.75574053      -3.12820496
H       -8.20430863      -1.65096596      -6.26673246
H       -9.93966581      -2.32869244      -7.85345349
H       -9.65028133      -6.38634996      -6.46635635
H       -7.46150685      -5.62980019      -3.60169009
H       -7.07056148      -6.64238655      -5.02246174
H       -8.66881360      -6.71415589      -4.25231978
C      -10.89685733      -4.80742261      -8.21464278
C      -11.73660689      -5.14541740      -9.01152182
Br     -13.09441089      -5.69192640     -10.30000783
C       -0.88176168       0.88176168       0.88176168
C       -1.34807287       2.10142555       0.39348953
C       -2.14791367       2.91089472       1.20356096
C       -2.48269287       2.49695427       2.49705673
C       -2.00984318       1.27268835       2.97931179
C       -1.20923139       0.46287860       2.17048570
C       -3.27652827       3.36467056       3.36310802
H       -4.34887981       3.18359040       3.37509008
C       -2.77255020       4.42436780       4.18895314
C       -1.50709826       4.82068131       4.37274718
C       -1.43833024       5.93312428       5.28616615
C       -0.21491428       6.52960823       5.83443544
C        0.85386581       6.82850479       4.97596262
C        2.04530734       7.35943614       5.47606445
C        2.18143611       7.60122683       6.84065461
C        1.12996577       7.30751816       7.70574019
C       -0.05817568       6.76738758       7.20670412
N       -2.73701334       6.19661435       5.68989403
C       -3.61891616       5.32696128       5.02478436
O       -4.83969665       5.28533598       5.03165211
C       -3.21663212       7.28989816       6.46250811
C       -2.72852658       8.57942117       6.18123475
C       -3.20211396       9.69866668       6.86917749
C       -4.16956008       9.53919006       7.85241331
C       -4.65203337       8.27019707       8.16443658
C       -4.17055039       7.12997563       7.49092363
C       -4.68918634       5.79257780       7.94843362
H       -1.09379901       2.43148271      -0.61026619
H       -2.50428389       3.86453582       0.81998063
H       -2.25553812       0.94495709       3.98706674
H       -0.84527466      -0.48602177       2.55539031
H       -0.63655190       4.37080751       3.91884824
H        0.77085346       6.64995634       3.90594146
H        2.86726990       7.58092967       4.79997950
H        3.10825054       8.01403133       7.23085365
H        1.23505803       7.49204252       8.77191859
H       -0.85626379       6.52715676       7.90568850
H       -2.00018271       8.73342707       5.38839728
H       -2.82004328      10.68413982       6.61762863
H       -5.40021827       8.15613631       8.94663306
H       -3.99260013       4.98089058       7.71950643
H       -5.66062479       5.58303760       7.49174737
H       -4.81147743       5.78595569       9.03785614
C       -4.67090694      10.69001456       8.55800122
C       -5.09078493      11.65383008       9.14893110
Br      -5.76969213      13.21223825      10.10441473
C        0.88176168      -0.88176168       0.88176168
C        1.55989675      -1.96270125       0.32038994
C        2.35981919      -2.77337747       1.12917268
C        2.48290622      -2.49863723       2.49516042
C        1.79842888      -1.41313428       3.05028016
C        0.99755661      -0.60237856       2.24266052
C        3.27810388      -3.37478035       3.35142260
H        4.30805157      -3.07263051       3.52687822
C        2.82620639      -4.58644334       3.97322141
C        1.61188784      -5.14903855       3.93960035
C        1.58508039      -6.37330546       4.69923481
C        0.39606400      -7.17640998       5.00648397
C       -0.51563130      -7.48163645       3.98459645
C       -1.67624927      -8.21008216       4.25636036
C       -1.93783450      -8.64527875       5.55300109
C       -1.04326027      -8.34806291       6.57848994
C        0.11276286      -7.61109120       6.30841333
N        2.85099127      -6.53425353       5.23827692
C        3.68127556      -5.48674879       4.80263745
O        4.87643275      -5.30379668       4.97645531
C        3.37784203      -7.65676670       5.93442965
C        3.10169203      -8.94568038       5.44181008
C        3.63596693     -10.08320207       6.05078914
C        4.45184801      -9.94362945       7.16568600
C        4.72158286      -8.67966594       7.68541821
C        4.17506132      -7.52434103       7.09204729
C        4.45426979      -6.20814914       7.76777884
H        1.47098358      -2.18395346      -0.73992152
H        2.88215354      -3.61927543       0.68737136
H        1.87873957      -1.19570673       4.11311565
H        0.46823044       0.23778961       2.68420238
H        0.74845961      -4.74787130       3.42987675
H       -0.33240159      -7.15403513       2.96341080
H       -2.37665947      -8.43446877       3.45582997
H       -2.84083585      -9.21188744       5.76558286
H       -1.24697727      -8.68361972       7.59226063
H        0.78450605      -7.37410025       7.13050275
H        2.49812155      -9.07717619       4.54670931
H        3.42030259     -11.06440736       5.63710179
H        5.35123333      -8.58374793       8.56800637
H        3.68765064      -5.46041123       7.54493527
H        5.43597721      -5.82753648       7.47189607
H        4.44622781      -6.33205176       8.85700970
C        5.01557373     -11.11132604       7.79202295
C        5.48769403     -12.08927193       8.31658015
Br       6.25107262     -13.67052773       9.16474477
