193
Properties=species:S:1:pos:R:3 pbc="F F F"
C        0.00000000       0.00000000       0.00000000
C        0.88156189       0.88156189      -0.88156189
C        0.68223778       2.25884828      -0.90061199
C        1.48660088       3.06194126      -1.71421740
C        2.49737824       2.49992045      -2.51104956
C        2.68591436       1.11109001      -2.47186132
C        1.87884247       0.30296268      -1.66338365
C        3.32702574       3.33999723      -3.36560260
C        4.58338445       3.23055247      -3.91583101
C        4.78790486       4.41020460      -4.67551722
C        3.64099870       5.18991628      -4.57831356
O        2.76740641       4.51620001      -3.75796771
C        3.37463690       6.45390544      -5.17566709
C        2.18462254       7.06639799      -5.13496801
C        0.93008029       6.68215105      -4.55819470
C        0.05216223       7.67312657      -4.76812030
C       -1.28821656       7.59697187      -4.19567837
C       -2.29807902       6.87185688      -4.84452399
C       -3.57640227       6.79684289      -4.28932498
C       -3.84467358       7.41882313      -3.07069672
C       -2.83715727       8.11569792      -2.40432412
C       -1.56199050       8.20587638      -2.96453282
N        0.62490081       8.74095536      -5.46852151
C        0.02616458       9.97936131      -5.88727950
C        0.81757538      11.09187872      -6.22434235
C        0.25218163      12.30944560      -6.62784274
C       -1.12749003      12.44772545      -6.70397783
C       -1.92931865      11.36189496      -6.38171217
Br      -3.81182947      11.52409292      -6.49048509
C       -1.36328914      10.14498862      -5.98431644
C        1.98122484       8.41894098      -5.75413847
O        2.84582056       9.02032133      -6.37148368
H       -0.09191385       2.71894783      -0.29232067
H        1.32128533       4.13780727      -1.71740895
H        3.45121156       0.63966913      -3.08406912
H        2.03438911      -0.77263729      -1.65595160
H        5.27456066       2.41083796      -3.78139427
H        5.67265613       4.66636846      -5.24266259
H        4.19980781       6.94164621      -5.69052630
H        0.73419420       5.76944141      -4.01839895
H       -2.09995182       6.38309251      -5.79627170
H       -4.36321984       6.25496104      -4.80782243
H       -4.84020141       7.35837008      -2.63777600
H       -3.04511221       8.59076325      -1.44883422
H       -0.78385541       8.75250079      -2.43628367
H        1.90171268      11.05900027      -6.15839937
H        0.89901885      13.14724423      -6.87682772
H       -1.56236439      13.39298367      -7.01561314
H       -2.04539003       9.32873161      -5.79502417
C       -0.88156189      -0.88156189      -0.88156189
C       -2.05566389      -1.42133179      -0.36470237
C       -2.85657578      -2.23362871      -1.17255505
C       -2.49627687      -2.51063198      -2.50143940
C       -1.31303001      -1.95134692      -3.00448877
C       -0.50535228      -1.14263956      -2.19719697
C       -3.32916870      -3.36641509      -3.33704179
C       -3.52444234      -3.51434445      -4.69098114
C       -4.47383622      -4.55644146      -4.84334900
C       -4.81035762      -5.02166347      -3.57720745
O       -4.10451858      -4.26491946      -2.67213609
C       -5.71486406      -6.06293916      -3.22640622
C       -5.87108157      -6.53264947      -1.98225750
C       -5.23594858      -6.19071855      -0.74375892
C       -5.77968680      -6.93964989       0.22592760
C       -5.39301445      -6.72879555       1.61737631
C       -4.22806816      -7.31884279       2.12860910
C       -3.85944292      -7.10854605       3.45822336
C       -4.63399337      -6.28529249       4.27443958
C       -5.77692306      -5.67026041       3.76431871
C       -6.15695038      -5.89108658       2.43961826
N       -6.76900055      -7.79799112      -0.26738602
C       -7.58068051      -8.75149330       0.43936843
C       -8.77600333      -9.24169507      -0.11609807
C       -9.58405800     -10.16592371       0.56051174
C       -9.21661781     -10.62583553       1.81824008
C       -8.03820201     -10.16079087       2.38470440
Br      -7.51164592     -10.78365950       4.09255687
C       -7.22944400      -9.24215918       1.70558725
C       -6.87197044      -7.60841228      -1.67392156
O       -7.55975168      -8.15872017      -2.51915371
H       -2.35796857      -1.22116735       0.65978127
H       -3.77333382      -2.64707687      -0.75609086
H       -0.99645738      -2.15337536      -4.02511706
H        0.41346328      -0.72787458      -2.60329212
H       -3.05288767      -2.93907076      -5.47483446
H       -4.86840453      -4.93773921      -5.77554344
H       -6.31171070      -6.49123166      -4.02903796
H       -4.47652069      -5.43726196      -0.60825192
H       -3.61651795      -7.96360998       1.50071554
H       -2.96946875      -7.58793277       3.85783789
H       -4.34521049      -6.12032654       5.30959235
H       -6.37362458      -5.01984739       4.39898671
H       -7.05066611      -5.40665859       2.05239564
H       -9.13488623      -8.90077965      -1.08344644
H      -10.50288132     -10.51802931       0.09781983
H       -9.84575220     -11.34087836       2.34039814
H       -6.30315995      -8.96028748       2.18508167
C       -0.88156189       0.88156189       0.88156189
C       -0.31358298       1.59551428       1.93260078
C       -1.12489682       2.39601780       2.74184493
C       -2.50619347       2.49443314       2.50772164
C       -3.05702952       1.77232133       1.43951484
C       -2.24931455       0.96505584       0.63081841
C       -3.34997690       3.32234042       3.36030826
C       -4.56048298       3.95899955       3.21028541
C       -4.83378162       4.58904101       4.45080404
C       -3.78944186       4.29850304       5.32128364
O       -2.88717187       3.53221372       4.62218854
C       -3.62568525       4.70244912       6.67607506
C       -2.64977624       4.25816843       7.47804388
C       -1.58540030       3.32293781       7.26208794
C       -0.85614035       3.25264769       8.38462105
C        0.36102921       2.44796040       8.41750250
C        0.29350292       1.06596327       8.64584150
C        1.46007164       0.30011063       8.66972662
C        2.69502407       0.90364480       8.43622554
C        2.76703284       2.27214184       8.17775576
C        1.60392809       3.04358382       8.16876297
N       -1.35485764       4.09257666       9.38694340
C       -0.86561079       4.30495071      10.72224388
C       -1.22953195       5.44781762      11.45644688
C       -0.75726385       5.67577919      12.75642693
C        0.09739287       4.76227820      13.35932792
C        0.46622502       3.62382829      12.65668521
Br       1.62013536       2.35921303      13.46367088
C       -0.01053427       3.39470404      11.36077762
C       -2.51142672       4.75472517       8.88815240
O       -3.28864975       5.53676507       9.41221075
H        0.75276933       1.53801175       2.13411224
H       -0.66695179       2.95080638       3.55874338
H       -4.12436794       1.81519125       1.23539062
H       -2.69806794       0.40493860      -0.18530312
H       -5.16951774       3.97939674       2.31787840
H       -5.70264262       5.18613902       4.69290553
H       -4.34354795       5.41958080       7.06885156
H       -1.38430720       2.79295710       6.34477026
H       -0.66486578       0.58468051       8.82986610
H        1.40595864      -0.76651870       8.87204097
H        3.60323047       0.30612604       8.45304911
H        3.72964595       2.73915805       7.98497316
H        1.67193178       4.11027873       7.96658210
H       -1.87165961       6.21504842      11.03240429
H       -1.05969076       6.57396640      13.28943364
H        0.46264031       4.94266904      14.36620369
H        0.27891330       2.46527304      10.89200602
C        0.88156189      -0.88156189       0.88156189
C        2.23816375      -0.59694063       1.00659367
C        3.04345410      -1.41036507       1.80894037
C        2.50297104      -2.50995801       2.49541920
C        1.13269435      -2.77500455       2.36116679
C        0.32428922      -1.96678710       1.55411249
C        3.34834318      -3.36144206       3.32284034
C        3.13712097      -4.19809945       4.39454751
C        4.40125054      -4.75098086       4.72139527
C        5.33694751      -4.24731383       3.82496720
O        4.66652757      -3.38731466       2.98773190
C        6.73176562      -4.52045351       3.75199031
C        7.52891649      -4.09191774       2.76515431
C        7.26227222      -3.32233557       1.58581826
C        8.42067284      -3.13483116       0.93790509
C        8.46519672      -2.29209664      -0.25285967
C        8.11127309      -2.81292213      -1.50589337
C        8.14931446      -2.00080716      -2.64035601
C        8.51101746      -0.65922629      -2.52539748
C        8.83435606      -0.12638521      -1.27787651
C        8.81254204      -0.93972673      -0.14385007
N        9.49568762      -3.73720272       1.60148735
C       10.88666472      -3.76762671       1.23851396
C       11.87947108      -4.06538303       2.18894236
C       13.24080467      -4.09284244       1.85582286
C       13.64756730      -3.82031768       0.55632828
C       12.68560941      -3.52930458      -0.40062551
Br      13.21647089      -3.16705763      -2.18077998
C       11.32620152      -3.50769807      -0.06788365
C        9.00160476      -4.38396512       2.76873441
O        9.55763117      -5.06153405       3.61846035
H        2.68089088       0.24884992       0.48731369
H        4.10224735      -1.17464629       1.89960790
H        0.68171436      -3.62459417       2.86864127
H       -0.73341141      -2.19614551       1.45496932
H        2.19452039      -4.38252828       4.88974423
H        4.61228149      -5.44961679       5.51978890
H        7.16290496      -5.11221618       4.55685918
H        6.30232666      -2.93166194       1.28804596
H        7.82804352      -3.85861664      -1.60724777
H        7.89859804      -2.41467330      -3.61370771
H        8.53857499      -0.02662916      -3.40925947
H        9.10547057       0.92260507      -1.18838025
H        9.06714677      -0.51365543       0.82412685
H       11.63077978      -4.25956930       3.22876324
H       13.97785459      -4.32422054       2.62101568
H       14.70330490      -3.84102902       0.30189850
H       10.63011249      -3.32113587      -0.87288260
