178
Properties=species:S:1:pos:R:3 pbc="F F F"
C        5.07955592      11.84042606     -10.97693268
C        5.44926698      10.53382324     -10.29762183
O        6.87383622      10.42571025     -10.30913869
C        7.43843078       9.47023770      -9.50705743
C        6.76190785       8.58226101      -8.67388543
C        7.47841360       7.68165883      -7.86069964
C        6.70954576       6.79304689      -6.95694544
N        5.41568093       6.85147980      -6.89049855
N        4.84252209       5.98640031      -6.00863995
C        3.46267904       5.93832363      -5.83559355
O        2.65766613       6.64560367      -6.43863262
C        3.06421823       4.94558602      -4.85467647
C        1.81598650       4.56355410      -4.40176892
C        2.01823904       3.53465557      -3.44496317
C        1.18922044       2.73508834      -2.63781966
C        1.79343396       1.79343396      -1.79343396
C        3.18148980       1.64200529      -1.74074422
C        4.01941814       2.43041340      -2.53675925
C        3.39409304       3.35629887      -3.36922044
O        4.03105130       4.20672192      -4.21853449
C        8.88107960       7.65953377      -7.90824631
Br       9.94951847       6.49314399      -6.85572930
C        9.55956299       8.53356127      -8.76010705
C        8.83525438       9.42476273      -9.54204776
O        9.53025288      10.27581607     -10.35770057
H        3.99384483      11.95222270     -11.04385424
H        5.50806053      11.89487077     -11.98273816
H        5.48426267      12.68749150     -10.41207923
H        5.01626816       9.69122943     -10.84848254
H        5.05535474      10.55925425      -9.27583149
H        5.67644280       8.57435515      -8.62813361
H        7.26714699       6.07879456      -6.33117631
H        5.41467027       5.35733454      -5.45527820
H        0.87538798       4.98232842      -4.73494494
H        0.10982134       2.84722732      -2.67367395
H        3.62759482       0.90375174      -1.07683830
H        5.09754219       2.32819471      -2.51164891
H       10.64466379       8.53833333      -8.81837716
H        8.84863272      10.81008963     -10.81169210
C      -13.44716992      -6.42904317      -8.02070157
C      -12.04086565      -6.71501603      -7.52483037
O      -11.51347934      -7.78744202      -8.30776379
C      -10.16730085      -8.02388678      -8.22453829
C       -9.24916539      -7.32203382      -7.44685509
C       -7.87814572      -7.64344087      -7.49918548
C       -6.93907541      -6.83219357      -6.68826911
N       -7.35346410      -5.83729226      -5.96690293
N       -6.37992887      -5.17304259      -5.28459089
C       -6.68096812      -4.08641832      -4.46920979
O       -7.81191745      -3.63724078      -4.29274418
C       -5.50067790      -3.53043406      -3.83336877
C       -5.35323832      -2.47923396      -2.94883724
C       -3.97020207      -2.38404996      -2.64360574
C       -3.17487653      -1.55859390      -1.82865800
C       -1.79343396      -1.79343396      -1.79343396
C       -1.20538624      -2.81477806      -2.54407500
C       -1.98295258      -3.64360050      -3.36003771
C       -3.35316814      -3.39146357      -3.37498065
O       -4.27322782      -4.08690891      -4.09617098
C       -7.43623630      -8.69353441      -8.31908897
Br      -5.61472011      -9.21173951      -8.47193215
C       -8.35876531      -9.41275370      -9.08171231
C       -9.70406666      -9.06983881      -9.02815941
O      -10.58102486      -9.78659453      -9.79615012
H      -13.92167727      -5.64796897      -7.42027551
H      -14.06588115      -7.33146927      -7.98831904
H      -13.41958838      -6.09914312      -9.06510191
H      -12.07038299      -7.01449416      -6.47110299
H      -11.44767913      -5.80153344      -7.64122791
H       -9.56947114      -6.51223023      -6.79723020
H       -5.86910243      -7.09102878      -6.71698665
H       -5.40921433      -5.45824355      -5.35982512
H       -6.15869793      -1.86340834      -2.57055508
H       -3.62505174      -0.76310787      -1.24256300
H       -0.13006532      -2.97778374      -2.50033579
H       -1.54698724      -4.44141427      -3.94898430
H       -8.04572609     -10.23092816      -9.72472003
H      -11.45848193      -9.39321058      -9.61872194
C       -7.77184879       6.62888642      13.49617946
C       -7.80881228       6.48696205      11.98493772
O       -8.56136303       7.58378710      11.46353503
C       -8.48762318       7.81261432      10.11548841
C       -7.74941897       7.07905743       9.18957789
C       -7.72544896       7.46173815       7.83358496
C       -6.88423645       6.67482041       6.90048123
N       -6.16763730       5.67609089       7.31393110
N       -5.43442640       5.05271596       6.35041999
C       -4.62147557       3.96414005       6.65098061
O       -4.49072060       3.47825422       7.77292760
C       -3.93444309       3.44926551       5.48077214
C       -3.06335791       2.38726721       5.33068441
C       -2.70635370       2.33365970       3.95784437
C       -1.88597223       1.51256725       3.16358896
C       -1.79343396       1.79343396       1.79343396
C       -2.48913182       2.85890063       1.21620685
C       -3.30837929       3.68508522       1.99312628
C       -3.38560132       3.38293456       3.35107648
O       -4.12875649       4.06074085       4.26681037
C       -8.46974722       8.57254707       7.40656538
Br      -8.50923546       9.18178278       5.60737353
C       -9.22837475       9.29497524       8.32988133
C       -9.22604095       8.91092843       9.66509549
O       -9.97064917       9.64646165      10.54665869
H       -7.25056856       5.78425352      13.95509968
H       -8.78352319       6.69287413      13.90927214
H       -7.25448606       7.55317287      13.77617448
H       -8.29935983       5.54629767      11.71032263
H       -6.77677832       6.49573669      11.61792546
H       -7.17390182       6.20974103       9.49528872
H       -6.87544073       6.96378094       5.83789618
H       -5.46526331       5.37357056       5.38844914
H       -2.73540232       1.73102643       6.12623261
H       -1.34255952       0.68280485       3.60535824
H       -2.40128292       3.05732896       0.14957298
H       -3.85680103       4.51544279       1.56514199
H       -9.81482021      10.15857248       8.02798159
H       -9.83399583       9.22033314      11.41608549
C       12.56226253     -10.02363789       5.31101424
C       11.13590987      -9.57314507       5.57165712
O       10.85324625      -9.80216292       6.95327598
C        9.72964005      -9.21515799       7.47092787
C        8.82307152      -8.41129374       6.78368904
C        7.73274203      -7.82829827       7.45973178
C        6.82698289      -6.94198399       6.69057121
N        7.03665265      -6.68398719       5.43701945
N        6.13265665      -5.84427716       4.86062854
C        6.23323600      -5.48262535       3.52073488
O        7.11472226      -5.87080487       2.75637529
C        5.16786450      -4.58667251       3.10994372
C        4.88401217      -4.01090328       1.88639406
C        3.71146284      -3.22924691       2.05714802
C        2.91449326      -2.41802037       1.22961481
C        1.79343396      -1.79343396       1.79343396
C        1.46360950      -1.95960170       3.14102810
C        2.24691429      -2.76257576       3.97710075
C        3.35342393      -3.37440167       3.39178675
O        4.23038677      -4.19313920       4.03278174
C        7.54239995      -8.07879374       8.82766599
Br       6.11281458      -7.34452434       9.84105285
C        8.43770756      -8.90303113       9.51249263
C        9.51530543      -9.45540944       8.83135000
O       10.38080297     -10.24934072       9.53362583
H       12.81740331      -9.91973528       4.25278317
H       12.70628471     -11.06568635       5.61369840
H       13.26227921      -9.42116203       5.90039216
H       10.44181611     -10.15726920       4.95689482
H       11.06368706      -8.51037158       5.31638183
H        8.94451495      -8.21178211       5.72263451
H        5.96633827      -6.49689899       7.21388060
H        5.36420203      -5.46170783       5.40137314
H        5.46053862      -4.15079800       0.98132473
H        3.16472767      -2.28447971       0.18151523
H        0.58788084      -1.46409703       3.55620698
H        2.00811846      -2.90524066       5.02402669
H        8.31502740      -9.11517221      10.57117467
H       11.05564524     -10.53051931       8.88424990
C       -0.00445707       0.01189536      -1.78238275
H       -0.66409135       0.67374010      -2.43557963
H        0.65740317      -0.63156657      -2.45157240
C       -0.90989263      -0.90692880      -0.91072765
C        0.90977584       0.90977584      -0.90977584
C       -0.00465871       1.77757030       0.00794375
H       -0.66225468       2.44313916      -0.64384735
H        0.64322798       2.43503045       0.67728295
C       -1.78241447       0.00034974      -0.00472694
H       -2.45427497      -0.65498947       0.64260836
H       -2.43311707       0.67328779      -0.65473579
C       -0.91132561       0.90220522       0.91563759
C       -0.01476271      -0.02253852       1.78660255
H       -0.67934791      -0.69751639       2.42135241
H        0.63392994       0.61504881       2.47327442
C        0.01484550      -1.77751727      -0.01636693
H        0.67870853      -2.42144646      -0.68295456
H       -0.62264859      -2.45592969       0.64226336
C        1.78714474       0.01002794       0.00389507
H        2.44202412       0.67113390       0.66197326
H        2.45385902      -0.65136977      -0.64189061
C        0.91606151      -0.90478549       0.90901405
