157
Properties=species:S:1:pos:R:3 pbc="F F F"
C        0.00000000       0.00000000       0.00000000
C        4.16965190      10.93052203     -10.06702866
C        4.53936296       9.62391922      -9.38771781
O        5.96393219       9.51580623      -9.39923466
C        6.52852676       8.56033367      -8.59715341
C        5.85200383       7.67235699      -7.76398141
C        6.56850958       6.77175481      -6.95079561
C        5.79964173       5.88314286      -6.04704142
N        4.50577691       5.94157578      -5.98059453
N        3.93261806       5.07649628      -5.09873593
C        2.55277502       5.02841961      -4.92568953
O        1.74776211       5.73569964      -5.52872859
C        2.15431421       4.03568200      -3.94477245
C        0.90608248       3.65365007      -3.49186490
C        1.10833501       2.62475154      -2.53505914
C        0.27931641       1.82518432      -1.72791563
C        0.88352993       0.88352993      -0.88352993
C        2.27158577       0.73210126      -0.83084019
C        3.10951412       1.52050938      -1.62685523
C        2.48418902       2.44639485      -2.45931642
O        3.12114728       3.29681789      -3.30863046
C        7.97117557       6.74962974      -6.99834229
Br       9.03961445       5.58323997      -5.94582527
C        8.64965897       7.62365725      -7.85020303
C        7.92535036       8.51485871      -8.63214373
O        8.62034885       9.36591204      -9.44779654
H        3.08394080      11.04231867     -10.13395022
H        4.59815651      10.98496674     -11.07283414
H        4.57435865      11.77758748      -9.50217521
H        4.10636414       8.78132541      -9.93857852
H        4.14545071       9.64935022      -8.36592747
H        4.76653878       7.66445113      -7.71822959
H        6.35724297       5.16889053      -5.42127228
H        4.50476624       4.44743052      -4.54537417
H       -0.03451604       4.07242440      -3.82504092
H       -0.80008269       1.93732330      -1.76376993
H        2.71769079      -0.00615228      -0.16693427
H        4.18763816       1.41829069      -1.60174489
H        9.73475977       7.62842930      -7.90847314
H        7.93872870       9.90018561      -9.90178808
C       -5.43842438      -7.21688364     -12.51189457
C       -5.73782259      -6.69552218     -11.11765521
O       -6.82976013      -7.45425619     -10.59495676
C       -7.08500189      -7.34709884      -9.25391310
C       -6.38523021      -6.56615238      -8.33695964
C       -6.72784220      -6.59287402      -6.97034378
C       -5.91850969      -5.78001883      -6.03129750
N       -4.90670134      -5.07996594      -6.44127993
N       -4.24679867      -4.39296693      -5.46808468
C       -3.14355573      -3.59857162      -5.76475681
O       -2.67490624      -3.44601065      -6.89127346
C       -2.59568784      -2.95327959      -4.58580122
C       -1.53351281      -2.08241800      -4.43566664
C       -1.45438442      -1.75770072      -3.05606057
C       -0.62863757      -0.94320760      -2.26057119
C       -0.88352993      -0.88352993      -0.88352993
C       -1.92481370      -1.60982201      -0.29989152
C       -2.75420690      -2.42501022      -1.07766160
C       -2.48188171      -2.46449952      -2.44351906
O       -3.17436162      -3.18909084      -3.36314318
C       -7.79673600      -7.39019985      -6.53221176
Br      -8.34435670      -7.50763831      -4.71668468
C       -8.51357601      -8.15589704      -7.45404619
C       -8.14982677      -8.12788443      -8.79464160
O       -8.86496605      -8.89829339      -9.67079800
H       -4.64133082      -6.63546057     -12.98341830
H       -6.33091077      -7.18040977     -13.14463684
H       -5.12485206      -8.26555786     -12.46371141
H       -6.02080950      -5.63800691     -11.16745165
H       -4.83517515      -6.81654435     -10.50900890
H       -5.56097144      -5.93363203      -8.65461603
H       -6.19370801      -5.78863394      -4.96506384
H       -4.54757931      -4.44919975      -4.50079187
H       -0.90005504      -1.72563923      -5.23725501
H        0.18228366      -0.37595860      -2.70733560
H       -2.10318512      -1.54734745       0.77205980
H       -3.56728627      -2.99529091      -0.64509656
H       -9.34599483      -8.78178687      -7.14388050
H       -8.45587027      -8.74009164     -10.54474047
C       -9.86436694       4.20082003      11.10201562
C       -9.23494131       4.55073440       9.76532428
O       -9.29246832       5.97046129       9.61604348
C       -8.53598796       6.52923848       8.62078740
C       -7.70912998       5.85092880       7.72828344
C       -6.94452288       6.56345885       6.78307827
C       -6.04438487       5.79492796       5.89051318
N       -5.93735985       4.50590016       5.98468721
N       -5.06429933       3.93297463       5.11057632
C       -4.85129263       2.55795317       5.09763835
O       -5.40892147       1.75731519       5.84595369
C       -3.88824577       2.15862438       4.08789851
C       -3.40933832       0.91322472       3.72903441
C       -2.48951206       1.11228862       2.66634502
C       -1.68148908       0.28351722       1.86741007
C       -0.88352993       0.88352993       0.88352993
C       -0.87707339       2.26734764       0.69010620
C       -1.67457170       3.10501024       1.47729678
C       -2.46044220       2.48377836       2.44567973
O       -3.30333449       3.12095677       3.30230437
C       -7.03487743       7.96283660       6.72143358
Br      -6.04950183       9.02598368       5.49319418
C       -7.88087413       8.64213945       7.60050567
C       -8.61430343       7.92244318       8.53560619
O       -9.42529199       8.61861293       9.39015252
H       -9.89529733       3.11747299      11.24743937
H      -10.88059033       4.60120786      11.17415919
H       -9.28744572       4.64715581      11.91951981
H       -9.79690024       4.07667468       8.95269315
H       -8.20145489       4.18777869       9.77149482
H       -7.63098982       4.76751699       7.75071268
H       -5.45680547       6.34882602       5.14177429
H       -4.54701314       4.50185503       4.44870276
H       -3.70168878      -0.02367790       4.18493840
H       -1.68155944      -0.79260565       2.01205675
H       -0.24873709       2.71023932      -0.08050363
H       -1.68490772       4.17984384       1.34292217
H       -7.97160214       9.72472740       7.57533267
H       -9.84277030       7.94040718       9.95752490
C       11.64603468      -9.12344877       4.39771914
C       10.22063735      -8.67069509       4.65966754
O        9.93952020      -8.89748334       6.04196954
C        8.81739623      -8.30827959       6.56033802
C        7.91098427      -7.50412145       5.87323651
C        6.82234396      -6.91875967       6.54995638
C        5.91674195      -6.03226243       5.78082164
N        6.12507590      -5.77622591       4.52664540
N        5.22143311      -4.93607706       3.95034011
C        5.32069988      -4.57635505       2.60982922
O        6.20063979      -4.96673946       1.84481109
C        4.25597925      -3.67952535       2.19926405
C        3.97125778      -3.10501502       0.97532465
C        2.79998626      -2.32155909       1.14660035
C        2.00299478      -1.51037350       0.31904808
C        0.88352993      -0.88352993       0.88352993
C        0.55529057      -1.04745051       2.23178615
C        1.33863977      -1.85035387       3.06788508
C        2.44354326      -2.46444624       2.48191079
O        3.32026765      -3.28349986       3.12282812
C        6.63350107      -7.16716762       7.91847892
Br       5.20626042      -6.42962551       8.93279376
C        7.52862161      -7.99168700       8.60321064
C        8.60456448      -8.54642143       7.92136689
O        9.46993899      -9.34057141       8.62354705
H       11.89989514      -9.02130557       3.33900898
H       11.78906704     -10.16528315       4.70160720
H       12.34764721      -8.52112341       4.98535072
H        9.52493828      -9.25471069       4.04661909
H       10.14949556      -7.60816852       4.40306433
H        8.03127186      -7.30619391       4.81175373
H        5.05739662      -5.58532339       6.30468578
H        4.45421728      -4.55175386       4.49159979
H        4.54638223      -3.24689456       0.06967249
H        2.25200215      -1.37857217      -0.72956378
H       -0.31921625      -0.55021647       2.64747256
H        1.10105718      -1.99129634       4.11532022
H        7.40707720      -8.20224548       9.66233953
H       10.14353276      -9.62352400       7.97364562
