153
Properties=species:S:1:pos:R:3 pbc="F F F"
C        0.00000000       0.00000000       0.00000000
C       -0.10142546       1.69893204      -4.92057466
O        1.07701287       2.23968251      -4.33308265
C        1.31325478       1.91896060      -3.01973752
C        0.50854245       1.12006967      -2.21023089
C        0.88355850       0.88355850      -0.88355850
C        2.04930509       1.43679184      -0.35048022
C        2.86496750       2.23561826      -1.15494131
C        4.10148763       2.81139083      -0.61582042
C        5.33131276       2.26096859      -0.68268156
C        5.58440813       0.92161226      -1.24155029
O        4.72943759       0.08044855      -1.48933054
N        6.90188911       0.64479831      -1.45940807
C        7.99809280       1.41387366      -1.16658890
S        9.46182447       0.80296369      -1.72860884
N        7.75544459       2.61615831      -0.48843766
C        8.84862243       3.44096353      -0.03851491
C        9.85458166       2.91820373       0.78935805
C       10.90829333       3.72532811       1.22572089
C       10.96707511       5.06382918       0.84391571
C        9.96287249       5.59342390       0.03668872
Br      10.04237564       7.41012037      -0.48309801
C        8.90318288       4.79620141      -0.39711529
C        6.46522080       3.08658112      -0.18548845
O        6.23884707       4.10003808       0.48042253
C        2.48694206       2.46827031      -2.48318851
O        3.28219020       3.25275050      -3.28435052
H       -0.13659205       2.03144311      -5.96263627
H       -0.99889310       2.07660192      -4.41935641
H       -0.07707708       0.60452672      -4.92089760
H       -0.40479923       0.67045251      -2.58363079
H        2.32890612       1.23423836       0.68009146
H        3.96148022       3.81189899      -0.20834645
H        7.07688290      -0.24637380      -1.90814475
H        9.81954940       1.88512942       1.12795413
H       11.68112579       3.30883758       1.86761693
H       11.79178404       5.68456854       1.18397394
H        8.13011667       5.22912161      -1.02727496
H        2.82381916       3.27498504      -4.14758528
C       -3.67858611       0.76489773      -3.60439286
O       -3.52914788      -0.64485427      -3.47577587
C       -2.59944499      -1.08519346      -2.56731445
C       -1.78896222      -0.28436608      -1.76551471
C       -0.88355850      -0.88355850      -0.88355850
C       -0.77161773      -2.27223524      -0.79272419
C       -1.58252472      -3.08384890      -1.58915345
C       -1.48947247      -4.54452269      -1.49470371
C       -2.23482406      -5.34007499      -0.70006387
C       -3.20606944      -4.81878245       0.27728121
O       -3.29051462      -3.65359821       0.64489614
N       -4.03994916      -5.76401938       0.79787305
C       -4.04167076      -7.11739827       0.58051367
S       -5.32882856      -7.94500096       1.28043252
N       -3.01218709      -7.62271731      -0.22513617
C       -2.86222765      -9.04258319      -0.42329003
C       -2.73768802      -9.91508070       0.66934138
C       -2.58737879     -11.28967199       0.46915023
C       -2.55559257     -11.80769947      -0.82369654
C       -2.66126800     -10.94557152      -1.91276815
Br      -2.61935458     -11.64797951      -3.66825992
C       -2.80397136      -9.57086993      -1.72165829
C       -2.06175888      -6.80868543      -0.86684607
O       -1.10390299      -7.24298844      -1.51157119
C       -2.48908434      -2.47996633      -2.46935021
O       -3.29247890      -3.26887540      -3.25793692
H       -4.45954366       0.95035917      -4.34830283
H       -2.75450701       1.22608998      -3.96864820
H       -4.00313721       1.21610629      -2.66131632
H       -1.84344045       0.79792093      -1.80376455
H       -0.06863817      -2.71955185      -0.09486300
H       -0.79365930      -4.97302985      -2.21503651
H       -4.75480129      -5.40076128       1.41690872
H       -2.72911174      -9.53669248       1.68907952
H       -2.49093694     -11.95524156       1.32383205
H       -2.44235363     -12.87839796      -0.97162705
H       -2.88556174      -8.91555035      -2.58540115
H       -3.82691325      -2.63884287      -3.78063336
C        0.73737611       3.27833063       3.97712672
O       -0.66307535       3.26415313       3.72254955
C       -1.09504071       2.45623346       2.70067873
C       -0.29357052       1.65509919       1.89017330
C       -0.88355850       0.88355850       0.88355850
C       -2.26321105       0.90285924       0.67050686
C       -3.07581161       1.69941356       1.48030191
C       -4.52873250       1.71911412       1.28085225
C       -5.42938634       0.93594137       1.90963521
C       -5.04894175      -0.14120870       2.83983764
O       -3.92099658      -0.59834313       2.97656323
N       -6.08627935      -0.64677779       3.56659392
C       -7.41807809      -0.33120925       3.49168652
S       -8.38394364      -1.05485141       4.66430476
N       -7.79009759       0.57792365       2.49201933
C       -9.17821823       0.88964502       2.26023761
C      -10.11190917      -0.12484962       1.99636779
C      -11.45481885       0.18559662       1.76748509
C      -11.87944715       1.51214375       1.79539768
C      -10.95493109       2.52514892       2.03952766
Br     -11.53061369       4.32624224       2.07873809
C       -9.61073163       2.22425033       2.26151762
C       -6.86645409       1.22161126       1.64922503
O       -7.18408768       1.96051494       0.71385999
C       -2.48136246       2.46878004       2.48825838
O       -3.27135775       3.25637739       3.29155608
H        0.91542124       3.95143053       4.82147803
H        1.28904515       3.67008368       3.11602671
H        1.09794404       2.28466682       4.26162446
H        0.78186399       1.60991945       2.02122862
H       -2.70436689       0.28947780      -0.11079167
H       -4.85467775       2.51489070       0.61215721
H       -5.81972222      -1.33827795       4.25720957
H       -9.80456543      -1.16664791       1.93880718
H      -12.16841251      -0.60927446       1.56320840
H      -12.92629776       1.74573201       1.62034887
H       -8.90562523       3.02990571       2.45098229
H       -2.64801043       3.69358649       3.90479255
C        4.00049554      -3.25073019      -0.73314449
O        3.73293440      -3.25188779       0.66495583
C        2.70235852      -2.45424949       1.09534488
C        1.89962327      -1.64393802       0.29528172
C        0.88355850      -0.88355850       0.88355850
C        0.65899026      -0.91646127       2.26112563
C        1.45548372      -1.72872581       3.07131754
C        1.22277116      -1.78771251       4.51821520
C        0.43718260      -2.67502519       5.16275512
C       -0.39022705      -3.67375498       4.46404274
O       -0.64266178      -3.67624989       3.26562857
N       -0.90883889      -4.63906486       5.27586952
C       -0.81366431      -4.75375303       6.63846664
S       -1.45524099      -6.17281959       7.27581840
N       -0.16071530      -3.71101455       7.30974131
C       -0.10532523      -3.68356316       8.74986293
C       -1.27819029      -3.74266431       9.51895332
C       -1.21678576      -3.71025820      10.91442811
C        0.01550151      -3.61434290      11.55714417
C        1.18207075      -3.53787384      10.79966309
Br       2.85554239      -3.40877448      11.67127714
C        1.12893394      -3.56192187       9.40564377
C        0.45487920      -2.63222882       6.65018236
O        0.96163967      -1.66786741       7.22895554
C        2.47033491      -2.48994909       2.47811688
O        3.26034076      -3.29324517       3.26570529
H        4.83073796      -3.94049382      -0.91374445
H        4.31224617      -2.25725321      -1.07243415
H        3.13758631      -3.61224542      -1.30148448
H        2.03918290      -1.58871401      -0.77861284
H       -0.14128739      -0.32549567       2.69884473
H        1.83061245      -1.07579800       5.07531520
H       -1.42021765      -5.36721584       4.79165565
H       -2.25614017      -3.78791906       9.04494581
H       -2.13262713      -3.75580170      11.49917188
H        0.05577388      -3.59361970      12.64298506
H        2.05139251      -3.50185307       8.83326765
H        3.88677290      -3.71486914       2.64474744
