161
Properties=species:S:1:pos:R:3 pbc="F F F"
C        0.00000000       0.00000000       0.00000000
C       -0.10142546       1.69893204      -4.92057466
O        1.07701287       2.23968251      -4.33308265
C        1.31325478       1.91896060      -3.01973752
C        0.50854245       1.12006967      -2.21023089
C        0.88355850       0.88355850      -0.88355850
C        2.04930509       1.43679184      -0.35048022
C        2.86496750       2.23561826      -1.15494131
C        4.10148763       2.81139083      -0.61582042
C        5.33131276       2.26096859      -0.68268156
C        5.58440813       0.92161226      -1.24155029
O        4.72943759       0.08044855      -1.48933054
N        6.90188911       0.64479831      -1.45940807
C        7.99809280       1.41387366      -1.16658890
S        9.46182447       0.80296369      -1.72860884
N        7.75544459       2.61615831      -0.48843766
C        8.84862243       3.44096353      -0.03851491
C        9.85458166       2.91820373       0.78935805
C       10.90829333       3.72532811       1.22572089
C       10.96707511       5.06382918       0.84391571
C        9.96287249       5.59342390       0.03668872
C        8.90318288       4.79620141      -0.39711529
C        6.46522080       3.08658112      -0.18548845
O        6.23884707       4.10003808       0.48042253
C        2.48694206       2.46827031      -2.48318851
O        3.28219020       3.25275050      -3.28435052
H       -0.13659205       2.03144311      -5.96263627
H       -0.99889310       2.07660192      -4.41935641
H       -0.07707708       0.60452672      -4.92089760
H       -0.40479923       0.67045251      -2.58363079
H        2.32890612       1.23423836       0.68009146
H        3.96148022       3.81189899      -0.20834645
H        7.07688290      -0.24637380      -1.90814475
H        9.81954940       1.88512942       1.12795413
H       11.68112579       3.30883758       1.86761693
H       11.79178404       5.68456854       1.18397394
H        8.13011667       5.22912161      -1.02727496
H        2.82381916       3.27498504      -4.14758528
C       10.02340579       6.97664744      -0.35907428
C       10.07410242       8.13509716      -0.69052579
Br      10.15607458      10.00821237      -1.22645485
C       -4.94277417      -1.63526769       0.05996062
O       -4.34539511      -2.20437249      -1.10001042
C       -3.02454774      -1.90516571      -1.32223945
C       -2.21842171      -1.09657984      -0.52384147
C       -0.88355850      -0.88355850      -0.88355850
C       -0.34139407      -1.46284936      -2.03233373
C       -1.14002164      -2.27840530      -2.83710013
C       -0.58213780      -2.90798674      -4.03857433
C       -0.02878142      -4.13624099      -4.10994051
C        0.17889895      -4.99521476      -2.93125487
O        0.09837077      -4.63370103      -1.76388642
N        0.50732950      -6.28506117      -3.22836383
C        0.72921844      -6.85072088      -4.45705291
S        0.96133342      -8.51725239      -4.43747803
N        0.68696610      -5.98701281      -5.55999386
C        1.01521156      -6.46286862      -6.88044381
C        2.24428448      -7.09068085      -7.13703097
C        2.55748331      -7.54459217      -8.42079169
C        1.64914071      -7.37307506      -9.46305422
C        0.43489834      -6.73542014      -9.21908587
C        0.11763192      -6.27240729      -7.94172421
C        0.35090193      -4.62485588      -5.46333643
O        0.38830798      -3.83586951      -6.41090109
C       -2.47535511      -2.49073514      -2.47231063
O       -3.27072874      -3.29181541      -3.25674707
H       -5.98125017      -1.97806167       0.10182451
H       -4.95450658      -0.54188389      -0.00067476
H       -4.44214308      -1.97751181       0.97130765
H       -2.59860826      -0.62749974       0.37682392
H        0.70059299      -1.29303317      -2.29061283
H       -0.73129245      -2.31218039      -4.93825282
H        0.58266543      -6.89683857      -2.42448071
H        2.98539863      -7.21195867      -6.35016465
H        3.51339040      -8.02863098      -8.60710587
H        1.89798392      -7.73222555     -10.45813701
H       -0.83586617      -5.77804887      -7.77259819
H       -4.14288144      -3.28847485      -2.81503319
C       -0.50486848      -6.55853490     -10.29572412
C       -1.29192320      -6.41039351     -11.19740866
Br      -2.56452410      -6.17086141     -12.65535630
C        0.46036058       2.36062549       4.61781633
O       -0.84365756       2.66877701       4.13734346
C       -1.19045309       2.14390765       2.91759216
C       -0.38712271       1.34425723       2.10746307
C       -0.88355850       0.88355850       0.88355850
C       -2.17024275       1.21301570       0.45331871
C       -2.98493865       2.01058354       1.26000488
C       -4.34503402       2.35280954       0.83085531
C       -5.47006396       1.67226432       1.13263464
C       -5.46669968       0.40204576       1.87882524
O       -4.48032543      -0.28735400       2.10624526
N       -6.69735927       0.00068760       2.30804862
C       -7.91638610       0.58385129       2.07831796
S       -9.20316299      -0.11618202       2.90641602
N       -7.92554670       1.70161723       1.23287664
C       -9.16827208       2.31827755       0.84155123
C      -10.18520395       1.56866216       0.22956123
C      -11.38505586       2.17458126      -0.15173656
C      -11.58117920       3.53591561       0.06989376
C      -10.56941208       4.28919199       0.66100360
C       -9.36535770       3.69337690       1.03776498
C       -6.75865477       2.27827905       0.70035656
O       -6.75630720       3.21013763      -0.10798222
C       -2.48482219       2.46806941       2.48550928
O       -3.27787122       3.25354726       3.28787274
H        0.57506967       2.83538462       5.59717238
H        1.22997015       2.77129944       3.95573595
H        0.58731159       1.28187104       4.75378779
H        0.61785000       1.06413851       2.40299556
H       -2.54176700       0.83804651      -0.49676050
H       -4.39456278       3.29712009       0.29004279
H       -6.69230619      -0.83468199       2.88102965
H      -10.04930281       0.51066246       0.01675943
H      -12.16497807       1.58324978      -0.62588141
H      -12.51857760       3.99956617      -0.22576513
H       -8.58888904       4.29927014       1.49835405
H       -2.72598136       3.44979964       4.07060848
C      -10.77173428       5.69620294       0.89119028
C      -10.94117912       6.87457462       1.08397163
Br     -11.21515710       8.77990195       1.39568276
C        4.59775006      -2.39640559      -0.47607441
O        4.12093460      -2.69803560       0.83080783
C        2.90630942      -2.16402587       1.18161761
C        2.10175569      -1.35443405       0.38265328
C        0.88355850      -0.88355850       0.88355850
C        0.45753160      -1.20550371       2.17354185
C        1.25481540      -2.01983688       2.98087478
C        0.81493498      -2.38119702       4.33256686
C        0.11674467      -3.48369451       4.67452373
C       -0.39251340      -4.45206251       3.68802157
O       -0.45063747      -4.27181550       2.47803865
N       -0.84322011      -5.61970492       4.22961068
C       -0.94152023      -5.96851524       5.55156035
S       -1.40038453      -7.56326044       5.83052109
N       -0.60542824      -4.97949285       6.48597596
C       -0.78070888      -5.21092444       7.89788531
C       -2.02741874      -5.59307601       8.41777007
C       -2.19083821      -5.81049696       9.78824180
C       -1.11282723      -5.64482166      10.65499414
C        0.12275216      -5.24894644      10.14790907
C        0.29241992      -5.02239932       8.78168034
C       -0.10530858      -3.71485801       6.12774095
O        0.11783141      -2.80749007       6.93314114
C        2.47275694      -2.49080807       2.47483587
O        3.26559979      -3.29326208       3.26042934
H        5.55916781      -2.90315045      -0.60483093
H        4.76903753      -1.32110397      -0.59307626
H        3.91577323      -2.77613216      -1.24355815
H        2.39394126      -1.08028321      -0.62494040
H       -0.49649807      -0.83757857       2.54197251
H        1.18627439      -1.69905235       5.09639891
H       -1.12928705      -6.31610105       3.55183985
H       -2.89425627      -5.70128536       7.76969561
H       -3.16199613      -6.10538793      10.17895464
H       -1.24643924      -5.81952694      11.71929093
H        1.26538565      -4.71467536       8.40645222
H        4.04807867      -3.48997248       2.70833834
C        1.23771080      -5.07832331      11.04309340
C        2.17148866      -4.93542644      11.79281027
Br       3.68132848      -4.70437428      13.00503905
