197
Properties=species:S:1:pos:R:3 pbc="F F F"
C        0.00000000       0.00000000       0.00000000
N        8.04973703       0.59181092      -0.02811655
C        7.69373038       1.68097364       0.08059827
C        7.25886358       3.01141717       0.21339455
C        6.18851661       3.39153681      -0.53004344
S        5.76257149       2.53675825      -1.99698717
C        4.71025625       3.88170337      -2.60114892
H        5.30004781       4.47202463      -3.31252514
C        3.43333875       3.38916374      -3.29793934
C        2.52114615       2.50457570      -2.47160509
C        1.49831897       3.06818983      -1.69719851
C        0.67891950       2.25937303      -0.90644133
C        0.88162076       0.88162076      -0.88162076
C        1.88560935       0.30285242      -1.65292315
C        2.69556020       1.11156175      -2.45280515
C        4.45310580       4.77736922      -1.40041374
O        3.59443436       5.65525142      -1.42053212
N        5.31490092       4.45901710      -0.32164873
C        4.95920698       4.95341225       0.97763593
C        4.81811793       4.06538352       2.06035950
C        4.42808544       4.52724324       3.31918607
C        4.17836806       5.88336478       3.50686635
Br       3.64754991       6.51028355       5.20870897
C        4.30386240       6.77617404       2.44588536
C        4.68248847       6.31019728       1.18253788
C        7.97606854       3.98438341       1.08856498
O        7.93503423       5.17854619       0.80338826
N        8.71675590       3.43675882       2.12036870
C        9.53562127       4.14491510       3.03454762
C        9.68618688       5.53551816       3.04413120
C       10.51527485       6.16048420       3.98317501
C       11.20046930       5.39647924       4.92150262
Cl      12.21270702       6.16507634       6.07905187
C       11.06553053       4.01173748       4.92490518
C       10.23754982       3.38876513       3.98429182
H        2.85275896       4.25446545      -3.64514766
H        3.70626516       2.84709771      -4.21410595
H        1.33127517       4.14455687      -1.70204038
H       -0.10957063       2.71548243      -0.31381656
H        2.04851299      -0.77166650      -1.63819572
H        3.47463607       0.64292693      -3.05171169
H        4.94660446       2.99370468       1.93119370
H        4.30147897       3.82209418       4.13679466
H        4.10569049       7.83583049       2.58502066
H        4.77868128       7.02338778       0.36725240
H        8.71683166       2.43060066       2.24291195
H        9.17330271       6.17871511       2.33592963
H       10.61637494       7.24287300       3.97079050
H       11.60188056       3.41050761       5.65523209
H       10.15492265       2.30490377       4.00830345
N       -4.05788577       2.05579657      -6.66757531
C       -4.85564419       1.56219783      -6.00065938
C       -5.83013089       0.95925271      -5.18600802
C       -5.46234758      -0.15095287      -4.49679641
S       -4.12204971      -1.14056627      -5.03370094
C       -4.62107053      -2.55459025      -4.01744776
H       -5.17594227      -3.24773686      -4.66091845
C       -3.43526007      -3.29894235      -3.38623941
C       -2.52150367      -2.47179173      -2.50403155
C       -2.77193124      -2.36207733      -1.12969874
C       -1.95317527      -1.57165608      -0.31990252
C       -0.88162076      -0.88162076      -0.88162076
C       -0.61090230      -0.98747282      -2.24300980
C       -1.42272921      -1.78833419      -3.04886369
C       -5.61615654      -2.00757482      -3.00715740
O       -5.97468082      -2.66312021      -2.03241686
N       -6.04153502      -0.70098208      -3.35304964
C       -6.68132495       0.07861840      -2.33227675
C       -6.18065056       1.34906054      -1.99155193
C       -6.76587283       2.09876339      -0.96903316
C       -7.86008117       1.58485829      -0.27964361
Br      -8.65183526       2.59626295       1.10644781
C       -8.36423028       0.32620370      -0.59612450
C       -7.76915071      -0.42882876      -1.61216840
C       -7.22747997       1.47935948      -5.12376649
O       -8.13916768       0.69682207      -4.86784654
N       -7.39112070       2.81240565      -5.45443098
C       -8.62023361       3.51241822      -5.53817337
C       -9.86910914       2.94863814      -5.25710285
C      -11.03942468       3.70954691      -5.36270627
C      -10.96778258       5.04297480      -5.75063815
Cl     -12.40457242       5.97889012      -5.87304919
C       -9.73457490       5.61971962      -6.03750755
C       -8.56598395       4.85691903      -5.93295821
H       -3.81109239      -4.14543774      -2.79584194
H       -2.82984162      -3.75657625      -4.18105095
H       -3.60946924      -2.89135286      -0.67705032
H       -2.16329940      -1.50034966       0.74392070
H        0.22402562      -0.45183562      -2.68723221
H       -1.19598615      -1.86216123      -4.11112731
H       -5.29103411       1.75138703      -2.46946835
H       -6.34959574       3.06759214      -0.70477488
H       -9.21569609      -0.08261575      -0.05818848
H       -8.17945778      -1.40809501      -1.84726386
H       -6.57344162       3.36185110      -5.69292985
H       -9.98152594       1.91400334      -4.94856559
H      -11.99860006       3.24921124      -5.13906864
H       -9.67457806       6.66136451      -6.34394253
H       -7.61712112       5.33314188      -6.16754373
N       -0.56671071       0.05152654       8.05142727
C       -1.65663528      -0.06171176       7.69918221
C       -2.98800945      -0.20003356       7.26891032
C       -3.37380686       0.53884901       6.19744099
S       -2.52497277       2.00711571       5.76422843
C       -3.87509271       2.60376166       4.71425417
H       -4.46579552       3.31513502       5.30366704
C       -3.38873927       3.29807886       3.43362370
C       -2.50442040       2.47165742       2.52124913
C       -3.06879854       1.69228540       1.50262336
C       -2.26007152       0.90149484       0.68316750
C       -0.88162076       0.88162076       0.88162076
C       -0.30213774       1.65787690       1.88137028
C       -1.11081548       2.45776288       2.69134873
C       -4.76778609       1.39942929       4.46367338
O       -5.64840905       1.41410644       3.60770240
N       -4.44335569       0.32437528       5.32783578
C       -4.93478132      -0.97755952       4.97776150
C       -4.04380488      -2.05793713       4.83727419
C       -4.50292980      -3.31942022       4.45263302
C       -5.85923025      -3.51212478       4.20776101
Br      -6.48246276      -5.21757774       3.68423948
C       -6.75496772      -2.45355342       4.33273678
C       -6.29177568      -1.18757240       4.70594458
C       -3.95597599      -1.07598847       7.99189947
O       -5.15115035      -0.79467913       7.95372093
N       -3.40280161      -2.10374446       8.73408887
C       -4.10552035      -3.01756003       9.55802844
C       -5.49560865      -3.03102135       9.71298654
C       -6.11502795      -3.96940923      10.54696532
C       -5.34594229      -4.90318725      11.23269089
Cl      -6.10773256      -6.05995300      12.25095194
C       -3.96162558      -4.90268124      11.09341849
C       -3.34420141      -3.96272659      10.26054831
H       -4.25693836       3.64075481       2.85467890
H       -2.84869985       4.21678877       3.70198020
H       -4.14569279       1.69323572       1.33894391
H       -2.71678337       0.30497456      -0.10202957
H        0.77292647       1.64702234       2.04094634
H       -0.64162751       3.06057450       3.46707267
H       -2.97213996      -1.92501676       4.96199224
H       -3.79561791      -4.13521212       4.32637270
H       -7.81479710      -2.59662427       4.13832749
H       -7.00721678      -0.37422418       4.80182405
H       -2.39626853      -2.22313863       8.73139047
H       -6.14262626      -2.32644843       9.19991036
H       -7.19712871      -3.96009369      10.65142243
H       -3.35643180      -5.62943694      11.63016122
H       -2.26053383      -3.98360656      10.17459570
N        6.67021975      -4.05411069      -2.05466593
C        6.00343568      -4.85237112      -1.56170105
C        5.18894539      -5.82747103      -0.95953022
C        4.49909442      -5.46046647       0.15053596
S        5.03499063      -4.12036489       1.14096140
C        4.01834188      -4.62043728       2.55432938
H        4.66175274      -5.17533053       3.24751431
C        3.38629839      -3.43522228       3.29892116
C        2.50405306      -2.52148971       2.47178418
C        1.12987636      -2.77246432       2.36136663
C        0.32006788      -1.95371674       1.57094925
C        0.88162076      -0.88162076       0.88162076
C        2.24284658      -0.61035919       0.98817914
C        3.04870522      -1.42218394       1.78903793
C        3.00871905      -5.61572342       2.00644629
O        2.03385026      -5.97495306       2.66141458
N        3.35536059      -6.04038667       0.69981948
C        2.33520208      -6.68028068      -0.08049945
C        1.99481024      -6.17920392      -1.35087222
C        0.97286929      -6.76454397      -2.10127066
C        0.28373114      -7.85927277      -1.58813742
Br      -1.10157979      -8.65118863      -2.60048434
C        0.59988564      -8.36382963      -0.32956419
C        1.61534515      -7.76863739       0.42616532
C        5.12753367      -7.22462167      -1.48026836
O        4.87166981      -8.13675862      -0.69823628
N        5.45884562      -7.38754236      -2.81324196
C        5.54342282      -8.61631584      -3.51374990
C        5.26264897      -9.86555674      -2.95063187
C        5.36908809     -11.03549704      -3.71200109
C        5.75756576     -10.96311001      -5.04522984
Cl       5.88100353     -12.39944155      -5.98171359
C        6.04415087      -9.72952883      -5.62131687
C        5.93876576      -8.56131349      -4.85805612
H        2.79569749      -3.81167632       4.14499827
H        4.18064977      -2.82965816       3.75716090
H        0.67736154      -3.61042706       2.89008381
H       -0.74363334      -2.16427020       1.49909151
H        2.68693928       0.22499258       0.45309552
H        4.11083856      -1.19501331       1.86342281
H        2.47251560      -5.28920675      -1.75260691
H        0.70885004      -6.34796197      -3.07003351
H        0.06214138      -9.21570495       0.07865399
H        1.85019450      -8.17926652       1.40535564
H        5.69722826      -6.56952245      -3.36223033
H        4.95371282      -9.97855480      -1.91617943
H        5.14566648     -11.99496823      -3.25217727
H        6.35101047      -9.66894860      -6.66280299
H        6.17314659      -7.61214323      -5.33376684
