198
Properties=species:S:1:pos:R:3 pbc="F F F"
C        6.93707897       0.24667267     -10.33231558
C        7.61399880       1.58442670     -10.10017585
O        7.45947734       1.97224300      -8.72590916
C        8.40952821       1.51798211      -7.86895901
O        9.37940840       0.84396051      -8.17545184
C        8.09716433       1.91844959      -6.48556765
C        8.84505028       1.33553690      -5.43062294
N        9.44053505       0.90701253      -4.53220253
C        6.99586392       2.78594679      -6.15867866
S        5.55380438       2.10413170      -5.50795905
C        4.63591544       3.66789438      -5.64515851
H        3.74463617       3.49839718      -6.25841042
C        4.28885508       4.27094434      -4.27736405
C        3.40700358       3.40617600      -3.40788798
C        2.07037104       3.16767930      -3.75554150
C        1.26455912       2.36048139      -2.94927116
C        1.79162078       1.79162078      -1.79162078
C        3.11661052       2.02249820      -1.43143492
C        3.92167669       2.82873918      -2.23763489
C        5.55577333       4.63604723      -6.37765134
O        5.16832434       5.76416086      -6.67383605
N        6.85336714       4.10453393      -6.56354970
C        7.90545894       4.93350855      -7.09010392
C        7.64449374       5.92993044      -8.04429351
C        8.66603904       6.74928358      -8.54093391
C        9.96905813       6.58169601      -8.08840751
Br      11.34795414       7.69109551      -8.74758193
C       10.25657083       5.60668635      -7.14064666
C        9.23051169       4.79417417      -6.64229849
H        6.98949253      -0.03870335     -11.38654288
H        5.88559394       0.29080908     -10.02937958
H        7.40704223      -0.53954324      -9.73275252
H        7.12847539       2.35530525     -10.70728488
H        8.66943424       1.55779381     -10.39377242
H        5.20897742       4.53038126      -3.73471688
H        3.77321866       5.23076292      -4.42075183
H        1.64382796       3.61045041      -4.65298818
H        0.22999410       2.18341096      -3.23085237
H        3.53275322       1.58127389      -0.52963707
H        4.95642326       2.99762614      -1.94580627
H        6.64408079       6.08284885      -8.44307183
H        8.42695063       7.51391876      -9.27605138
H       11.26948479       5.48166103      -6.76470210
H        9.49670958       4.10316682      -5.84843388
C       -5.54385066      -0.86071110     -11.11150546
C       -6.43058965      -2.05498814     -10.81302355
O       -6.50788232      -2.25666687      -9.39308030
C       -7.48261684      -1.56752386      -8.74632863
O       -8.29865668      -0.82816160      -9.27200247
C       -7.40796416      -1.80016807      -7.29304934
C       -8.19062211      -0.98161438      -6.43897362
N       -8.82628973      -0.35636955      -5.69709083
C       -6.49343662      -2.74301983      -6.70403292
S       -5.06153804      -2.16137754      -5.94297957
C       -4.36913808      -3.83152209      -5.74830815
H       -3.39270546      -3.86587466      -6.24286366
C       -4.28771552      -4.26961694      -4.27983101
C       -3.40677279      -3.40631901      -3.40797576
C       -2.01669812      -3.39065612      -3.58623760
C       -1.21074381      -2.58341768      -2.78015018
C       -1.79162078      -1.79162078      -1.79162078
C       -3.17074549      -1.79946148      -1.60033667
C       -3.97583857      -2.60584439      -2.40636780
C       -5.31954997      -4.77173057      -6.47819137
O       -5.06486455      -5.97048384      -6.57097286
N       -6.49298849      -4.11358220      -6.91488009
C       -7.57901193      -4.87081449      -7.47924498
C       -7.34664036      -6.01939248      -8.25268485
C       -8.40505867      -6.76670724      -8.78449061
C       -9.71671413      -6.37289364      -8.54955388
Br     -11.14728569      -7.38337470      -9.25597120
C       -9.97742395      -5.24291836      -7.78356154
C       -8.91577794      -4.50263945      -7.24856695
H       -5.42140972      -0.72622259     -12.18969974
H       -4.55633125      -0.99263359     -10.65681776
H       -5.96706606       0.05665859     -10.68984404
H       -5.98893816      -2.96035223     -11.24177514
H       -7.42568880      -1.93839959     -11.25691208
H       -5.29655579      -4.33010222      -3.84741754
H       -3.90214957      -5.29726476      -4.22531908
H       -1.54902393      -4.00848054      -4.34976207
H       -0.13432842      -2.58048700      -2.92944200
H       -3.62898280      -1.18383600      -0.83084538
H       -5.05254040      -2.59924081      -2.24807446
H       -6.33663566      -6.35296313      -8.48040267
H       -8.18826750      -7.65340837      -9.37524489
H      -11.00085137      -4.93844760      -7.57654896
H       -9.17720036      -3.67630966      -6.59480027
C       -6.43559739      10.64588559       0.43458424
C       -6.69355212      10.67571937       1.92932985
O       -5.80836271       9.75833001       2.59093678
C       -4.59553654      10.25379919       2.94713360
O       -4.21919385      11.40206796       2.77755895
C       -3.75738661       9.19917511       3.54461985
C       -2.38177662       9.47202523       3.75740826
N       -1.25617678       9.64977700       3.97379633
C       -4.25196995       7.87440044       3.81411898
S       -3.82818288       6.58696809       2.75074417
C       -4.98636338       5.42602790       3.53657705
H       -5.67694384       5.05016317       2.77433677
C       -4.27070615       4.28871235       4.27774497
C       -3.40732081       3.40768962       3.40605714
C       -3.98351840       2.55927494       2.45079849
C       -3.17665385       1.75366280       1.64399502
C       -1.79162078       1.79162078       1.79162078
C       -1.20502297       2.62672614       2.73879452
C       -2.01158996       3.43198767       3.54447313
C       -5.77684862       6.23941579       4.55320749
O       -6.68935022       5.72275803       5.19421300
N       -5.27148513       7.55268027       4.69728537
C       -5.78522188       8.41586101       5.72798851
C       -7.13191605       8.36480178       6.12199986
C       -7.62586314       9.19134258       7.13905080
C       -6.77558202      10.08524724       7.77833239
Br      -7.43485059      11.19439550       9.15738550
C       -5.43649279      10.15457977       7.41283129
C       -4.94588012       9.32142377       6.39968046
H       -7.14081136      11.29192515      -0.09540445
H       -6.53156578       9.62546165       0.04875516
H       -5.41741625      10.97684018       0.20599508
H       -7.71515118      10.34044402       2.13547032
H       -6.59731388      11.68944276       2.33424383
H       -3.67297154       4.69516169       5.10594232
H       -5.01529593       3.64409681       4.76534067
H       -5.06359893       2.51464916       2.32901845
H       -3.63652301       1.10079344       0.90694097
H       -0.12532864       2.66025604       2.85807949
H       -1.53929217       4.08249460       4.27806889
H       -7.83852901       7.69619864       5.63527381
H       -8.67353267       9.12186678       7.42152131
H       -4.75835132      10.83603052       7.92146608
H       -3.87797232       9.36175837       6.20857959
C        6.90221320     -10.35535061       0.25850341
C        7.09401981     -10.44371424       1.76086730
O        6.13798131      -9.59899179       2.42065640
C        4.93500002     -10.16450143       2.69696788
O        4.62094637     -11.31926041       2.45861398
C        4.02233504      -9.17771547       3.30113106
C        2.65289301      -9.52164161       3.43667550
N        1.52830921      -9.75963172       3.59180919
C        4.44161644      -7.84621237       3.65266056
S        4.00596471      -6.53058182       2.62934861
C        5.07198820      -5.35705508       3.51992506
H        5.77764012      -4.91525056       2.80855310
C        4.27123574      -4.28900475       4.27692298
C        3.40739476      -3.40762953       3.40604327
C        3.98537818      -2.49033946       2.51787419
C        3.17856967      -1.68472755       1.71101445
C        1.79162078      -1.79162078       1.79162078
C        1.20299682      -2.69571633       2.67183048
C        2.00954236      -3.50093892       3.47756948
C        5.85341103      -6.18100882       4.53505205
O        6.71100519      -5.65462159       5.24069446
N        5.40429269      -7.52092051       4.59623757
C        5.91125673      -8.40762835       5.61018633
C        7.23505285      -8.31480187       6.06886296
C        7.72116124      -9.16519336       7.06990192
C        6.88597145     -10.12533335       7.62785685
Br       7.53408960     -11.26731623       8.98522576
C        5.56934388     -10.23739181       7.19716816
C        5.08607756      -9.38043266       6.20047413
H        7.66001985     -10.94354059      -0.26622839
H        6.96738101      -9.31466726      -0.07626567
H        5.91195905     -10.72052026      -0.03222780
H        8.08848816     -10.07302609       2.02955127
H        7.02741270     -11.47861902       2.11496874
H        3.65671278      -4.76026312       5.05709965
H        4.96214326      -3.63525616       4.82733400
H        5.06654596      -2.39167558       2.44904500
H        3.63986647      -0.97802659       1.02636437
H        0.12180549      -2.78317332       2.73868538
H        1.53588728      -4.20567725       4.15829113
H        7.93061337      -7.59308876       5.64629933
H        8.75069880      -9.06215826       7.40406371
H        4.90181573     -10.97167746       7.64235474
H        4.03088086      -9.45958366       5.95784576
C       -0.00445707       0.01189536      -1.78238275
H       -0.66409135       0.67374010      -2.43557963
H        0.65740317      -0.63156657      -2.45157240
C       -0.90989263      -0.90692880      -0.91072765
C        0.90977584       0.90977584      -0.90977584
C       -0.00465871       1.77757030       0.00794375
H       -0.66225468       2.44313916      -0.64384735
H        0.64322798       2.43503045       0.67728295
C       -1.78241447       0.00034974      -0.00472694
H       -2.45427497      -0.65498947       0.64260836
H       -2.43311707       0.67328779      -0.65473579
C       -0.91132561       0.90220522       0.91563759
C       -0.01476271      -0.02253852       1.78660255
H       -0.67934791      -0.69751639       2.42135241
H        0.63392994       0.61504881       2.47327442
C        0.01484550      -1.77751727      -0.01636693
H        0.67870853      -2.42144646      -0.68295456
H       -0.62264859      -2.45592969       0.64226336
C        1.78714474       0.01002794       0.00389507
H        2.44202412       0.67113390       0.66197326
H        2.45385902      -0.65136977      -0.64189061
C        0.91606151      -0.90478549       0.90901405
