185
Properties=species:S:1:pos:R:3 pbc="F F F"
C        0.00000000       0.00000000       0.00000000
C        6.02717495      -0.66323136      -9.42241155
C        6.70409477       0.67452268      -9.19027183
O        6.54957331       1.06233897      -7.81600514
C        7.49962419       0.60807808      -6.95905499
O        8.46950438      -0.06594352      -7.26554782
C        7.18726030       1.00854557      -5.57566363
C        7.93514625       0.42563288      -4.52071891
N        8.53063103      -0.00289149      -3.62229850
C        6.08595989       1.87604277      -5.24877464
S        4.64390036       1.19422768      -4.59805503
C        3.72601142       2.75799035      -4.73525449
H        2.83473215       2.58849316      -5.34850639
C        3.37895106       3.36104031      -3.36746002
C        2.49709955       2.49627198      -2.49798395
C        1.16046701       2.25777528      -2.84563748
C        0.35465510       1.45057736      -2.03936713
C        0.88171676       0.88171676      -0.88171676
C        2.20670649       1.11259418      -0.52153089
C        3.01177266       1.91883516      -1.32773086
C        4.64586931       3.72614320      -5.46774731
O        4.25842031       4.85425684      -5.76393202
N        5.94346312       3.19462991      -5.65364568
C        6.99555491       4.02360453      -6.18019990
C        6.73458972       5.02002641      -7.13438948
C        7.75613502       5.83937955      -7.63102988
C        9.05915410       5.67179199      -7.17850349
C        9.34666681       4.69678233      -6.23074264
C        8.32060767       3.88427015      -5.73239446
H        6.07958850      -0.94860738     -10.47663885
H        4.97568991      -0.61909494      -9.11947555
H        6.49713821      -1.44944726      -8.82284849
H        6.21857137       1.44540123      -9.79738086
H        7.75953021       0.64788978      -9.48386839
H        4.29907339       3.62047723      -2.82481285
H        2.86331463       4.32085890      -3.51084781
H        0.73392394       2.70054638      -3.74308416
H       -0.67990993       1.27350693      -2.32094834
H        2.62284920       0.67136987       0.38026696
H        4.04651923       2.08772211      -1.03590224
H        5.73417676       5.17294482      -7.53316780
H        7.51704660       6.60401474      -8.36614735
H       10.35958077       4.57175701      -5.85479808
H        8.58680555       3.19326280      -4.93852986
C       10.11054650       6.51769639      -7.68111643
C       10.99108764       7.22614132      -8.10205477
Br      12.41484818       8.37163686      -8.78267646
C       -4.34710208     -10.32659503      -0.11265804
C       -4.77909404     -10.22627085      -1.56352439
O       -4.08431335      -9.14276147      -2.20084261
C       -2.87718185      -9.44676611      -2.74280930
O       -2.36167263     -10.55266746      -2.75476859
C       -2.23584705      -8.24042068      -3.29520176
C       -0.87471589      -8.32050913      -3.68627303
N        0.22902759      -8.33658125      -4.04248437
C       -2.89911883      -6.96387228      -3.34778618
S       -2.49102215      -5.75669340      -2.18846752
C       -3.85390301      -4.66642565      -2.69892760
H       -4.48372426      -4.46105000      -1.82695744
C       -3.35971408      -3.37781300      -3.36992431
C       -2.49722435      -2.49791679      -2.49621435
C       -3.04172315      -1.83318097      -1.38897564
C       -2.23473113      -1.02754574      -0.58232273
C       -0.88171676      -0.88171676      -0.88171676
C       -0.32741079      -1.53293233      -1.98048844
C       -1.13401097      -2.33830673      -2.78602099
C       -4.66925362      -5.45516232      -3.71534389
O       -5.70282149      -4.98658260      -4.18720509
N       -4.04656699      -6.67451933      -4.07065238
C       -4.58515806      -7.47742993      -5.13677134
C       -5.96721056      -7.54737845      -5.37441661
C       -6.48856801      -8.31321049      -6.42476595
C       -5.63051384      -9.02373289      -7.25520285
C       -4.25744418      -8.96966610      -7.04708150
C       -3.74056079      -8.19728915      -5.99942233
H       -4.90940404     -11.10641002       0.40819408
H       -4.50504442      -9.37276807       0.40174196
H       -3.27908657     -10.55474308      -0.03670978
H       -5.84823452      -9.99668915      -1.61642978
H       -4.62391340     -11.17139811      -2.09597687
H       -2.82619268      -3.61748942      -4.30068137
H       -4.22282092      -2.77918721      -3.69301321
H       -4.09764787      -1.93279149      -1.14711511
H       -2.66975262      -0.51822325       0.27343052
H        0.72723967      -1.42268757      -2.21850421
H       -0.68656115      -2.84416820      -3.63941424
H       -6.67767016      -7.02539748      -4.73722174
H       -7.56404141      -8.34085564      -6.58231165
H       -3.57634514      -9.50540732      -7.70438339
H       -2.65929636      -8.12860331      -5.93069854
C       -6.16259434      -9.80582968      -8.34093529
C       -6.60821176     -10.46083575      -9.25023622
Br      -7.32873744     -11.51992516     -10.72049891
C      -10.83530657       1.56364303       2.38740555
C      -10.57698495       2.86013159       3.13177274
O       -9.27484210       3.36162280       2.79145253
C       -9.21239209       4.15957952       1.69478565
O      -10.16200949       4.49919136       1.00790782
C       -7.81863135       4.54370375       1.40913440
C       -7.53446550       5.17562138       0.17141116
N       -7.25021844       5.71510022      -0.81528063
C       -6.72548194       4.20349217       2.28180320
S       -5.68158456       2.90198666       1.85261184
C       -4.83731763       2.91885283       3.46308581
H       -4.92843094       1.92640910       3.91689165
C       -3.37530954       3.37341199       3.35872986
C       -2.49806694       2.49640278       2.49688576
C       -2.17083584       1.19421538       2.89882854
C       -1.36508779       0.38784066       2.09167114
C       -0.88171676       0.88171676       0.88171676
C       -1.19533810       2.17458675       0.47090672
C       -2.00094809       2.97989785       1.27749274
C       -5.59179506       3.92165579       4.32630898
O       -5.28082792       4.09283286       5.50294840
N       -6.56709844       4.63432964       3.59031062
C       -7.26700359       5.73652395       4.19583179
C       -7.58941619       5.73719741       5.56239201
C       -8.25276498       6.81930088       6.15447860
C       -8.60521896       7.92044890       5.38378172
C       -8.29481045       7.94997503       4.02940629
C       -7.62566268       6.86826432       3.44334527
H      -11.79676698       1.13205642       2.67879659
H      -10.04318925       0.83677711       2.59610417
H      -10.83836520       1.72722367       1.30495057
H      -10.57683667       2.67390735       4.21060943
H      -11.35816778       3.60198705       2.93113356
H       -3.32751825       4.41279496       3.00405027
H       -2.92890112       3.40364837       4.36247185
H       -2.53587066       0.79784818       3.84383563
H       -1.11948862      -0.62012271       2.41517943
H       -0.82103548       2.56475162      -0.47183499
H       -2.24096627       3.98703253       0.94214480
H       -7.35245851       4.88812755       6.19970333
H       -8.48273029       6.78776198       7.21671642
H       -8.54776577       8.81616349       3.42220659
H       -7.33942812       6.97733647       2.40183362
C       -9.28028493       9.03815780       5.99091659
C       -9.84565267       9.97423901       6.49939205
Br     -10.75980450      11.48780314       7.32155385
C       -0.03823253     -10.21076588       4.61382180
C        1.15371396      -9.91168531       5.50349000
O        1.35244963      -8.49150385       5.58396394
C        0.66012626      -7.84802210       6.55860889
O       -0.07980067      -8.37674796       7.37216139
C        0.89005982      -6.39414537       6.48726431
C        0.06829556      -5.54321671       7.26998577
N       -0.55965176      -4.80381249       7.90587731
C        1.83354416      -5.80148447       5.57574867
S        1.25321702      -5.03876077       4.14420528
C        2.92433068      -4.83945334       3.45547224
H        2.96157034      -5.33202054       2.47814083
C        3.35969749      -3.36996252       3.37779139
C        2.49641735      -2.49807262       2.49686551
C        2.48383148      -2.67363253       1.10641576
C        1.67659278      -1.86754763       0.30045918
C        0.88171676      -0.88171676       0.88171676
C        0.88647635      -0.69312846       2.26122676
C        1.69286111      -1.49915704       3.06632053
C        3.86410578      -5.56935741       4.40629663
O        5.06353634      -5.65928667       4.15378616
N        3.20451651      -6.00964161       5.57758058
C        3.96072483      -6.57465343       6.66398107
C        5.11127426      -7.34538071       6.43235065
C        5.85755525      -7.87779872       7.49119048
C        5.46070864      -7.64621321       8.80252773
C        4.32872090      -6.88295263       9.06251824
C        3.58947580      -6.34732566       8.00047081
H       -0.17036134     -11.28897917       4.48900216
H        0.09473283      -9.75388036       3.62745733
H       -0.95725752      -9.79173725       5.03605970
H        2.06078349     -10.33779139       5.06277857
H        1.03604637     -10.35775652       6.49748550
H        3.41735388      -2.93941478       4.38759482
H        4.38799050      -3.31267731       2.99435353
H        3.10407144      -3.43502306       0.63845997
H        1.67606690      -2.01472909      -0.77625064
H        0.26844211       0.07425174       2.71976174
H        1.68383452      -1.34299336       4.14331572
H        5.44727227      -7.57045836       5.42255876
H        6.74583923      -8.46638541       7.27498406
H        4.02183702      -6.67854945      10.08574938
H        2.76135154      -5.69569612       8.26155055
C        6.23010491      -8.18547874       9.89377567
C        6.87447429      -8.63711362      10.80769582
Br       7.91636508      -9.36736902      12.28542740
