157
Properties=species:S:1:pos:R:3 pbc="F F F"
C        0.00000000       0.00000000       0.00000000
N        9.82715254       4.26908875       1.93785812
C        9.45766181       3.70188140       1.00695724
C        9.00631563       3.00901728      -0.13017158
C        7.71871141       2.96909237      -0.53489289
S        6.41502898       3.44766716       0.52861688
C        5.17765417       2.42053149      -0.34122603
H        5.02459105       1.49579905       0.22469010
C        3.87887878       3.21915255      -0.51080198
C        2.73185212       2.43276915      -1.10801268
C        2.47153880       2.49857452      -2.48582807
C        1.44057302       1.75125371      -3.05666152
C        0.64166239       0.94165343      -2.25355739
C        0.88242492       0.88242492      -0.88242492
C        1.92238539       1.61690040      -0.30624676
C        5.83615896       2.06938418      -1.66501272
O        5.25510007       1.48618096      -2.57865398
N        7.19521752       2.45166617      -1.72634350
C        7.60067305       2.92018832      -3.03542051
C        6.77680197       3.84499738      -3.71299757
C        7.02118938       4.20626399      -5.04262466
C        8.10464637       3.65373471      -5.71251184
Br       8.40976898       4.08586503      -7.52647748
C        8.94576226       2.75802686      -5.05838604
C        8.68857058       2.38718061      -3.72855974
C       10.05933238       2.23277987      -0.82479623
O       11.14235772       2.71130409      -1.13665189
N        9.79529939       0.90541011      -1.01641563
H        3.54310706       3.59941810       0.46382290
H        4.05155607       4.10758911      -1.13390399
H        3.09482609       3.10804709      -3.13739475
H        1.27159530       1.79251476      -4.12977276
H       -0.15833591       0.36121323      -2.70527290
H        2.09679299       1.55588433       0.76509887
H        5.90403918       4.27421200      -3.22534730
H        6.34548985       4.89213854      -5.54789093
H        9.78796008       2.31257348      -5.58307520
H        9.32505340       1.62616646      -3.30166292
H        8.91006416       0.45999189      -0.81566442
H       10.51514112       0.34541114      -1.45899838
N      -10.81783798      -1.23116052      -0.10938467
C      -10.10257716      -1.05600713      -0.99400169
C       -9.22886041      -0.84205098      -2.07459310
C       -7.92915318      -1.20805700      -2.08548650
S       -7.09078804      -1.63301078      -0.61028044
C       -5.44749881      -1.20440890      -1.28750398
H       -5.16142856      -0.21302766      -0.92124377
C       -4.43349443      -2.28491438      -0.89042449
C       -3.00477188      -1.98103227      -1.28682980
C       -2.47623759      -2.50085861      -2.47884519
C       -1.17274573      -2.19993177      -2.87581076
C       -0.37165443      -1.38985211      -2.07536667
C       -0.88242492      -0.88242492      -0.88242492
C       -2.19173551      -1.16784773      -0.48594932
C       -5.66477604      -1.11679062      -2.78898919
O       -4.75177920      -0.96862407      -3.59953174
N       -7.02729146      -1.18917925      -3.15675647
C       -7.25080042      -1.91624298      -4.38923848
C       -6.60290395      -3.15673011      -4.57516287
C       -6.64074439      -3.82565183      -5.80368181
C       -7.33987719      -3.26615734      -6.86485839
Br      -7.34750418      -4.12848976      -8.54611756
C       -8.00709241      -2.05575564      -6.69932711
C       -7.95459189      -1.38069830      -5.46902073
C       -9.82909037      -0.08829483      -3.19952327
O      -10.90717092      -0.38433304      -3.69880973
N       -9.15467641       1.03281827      -3.59526700
H       -4.44766386      -2.42968623       0.19864783
H       -4.71458352      -3.25480559      -1.32366006
H       -3.08923705      -3.11951645      -3.13151444
H       -0.78961724      -2.58801449      -3.81625110
H        0.64191658      -1.15838818      -2.39167862
H       -2.57377846      -0.76068902       0.44688903
H       -6.02359216      -3.60777506      -3.77223126
H       -6.09942751      -4.76078322      -5.92530859
H       -8.54502247      -1.60714877      -7.53143752
H       -8.42017612      -0.40712866      -5.42557800
H       -8.24568523       1.30956030      -3.24959554
H       -9.56360115       1.58480116      -4.34075065
N      -10.24626104       3.37880424      -1.46668211
C       -9.76679925       2.91465104      -0.52886431
C       -9.18111947       2.34767126       0.61671377
C       -7.86835682       2.43324162       0.92109823
S       -6.68691504       2.92043361      -0.27326940
C       -5.31292729       2.05725298       0.56923142
H       -5.12937653       1.10458138       0.06174208
C       -4.07186433       2.95894837       0.57802061
C       -2.82638387       2.30720905       1.13904104
C       -2.47261967       2.49953964       2.48378207
C       -1.34751339       1.87613989       3.02483498
C       -0.54806959       1.06627216       2.22253148
C       -0.88242492       0.88242492       0.88242492
C       -2.01585590       1.49198054       0.33769612
C       -5.84396452       1.76403128       1.96256005
O       -5.15414642       1.29799165       2.86779695
N       -7.22074643       2.05019423       2.10228652
C       -7.56549617       2.58917906       3.40160665
C       -6.76960140       3.62165361       3.94354191
C       -6.94430602       4.06730955       5.25846246
C       -7.92958419       3.49173489       6.04957385
Br      -8.13504275       4.04139762       7.84567112
C       -8.74320215       2.48878009       5.53019292
C       -8.55503023       2.03451400       4.21476670
C      -10.11680078       1.55382001       1.44628769
O      -11.20847274       1.97536364       1.80647732
N       -9.73632230       0.26825302       1.71254982
H       -3.83862721       3.28504127      -0.44496622
H       -4.26791753       3.87858908       1.14654256
H       -3.09276968       3.11130781       3.13619045
H       -1.10477498       2.01354910       4.07555875
H        0.32565823       0.58268111       2.65112734
H       -2.26231646       1.33467335      -0.70941135
H       -5.97090600       4.07359607       3.35909641
H       -6.28952557       4.83794785       5.65804590
H       -9.50754396       2.02581547       6.15024933
H       -9.15923568       1.19815798       3.89548912
H       -8.83583065      -0.12603568       1.47592551
H      -10.37599601      -0.30614724       2.24970186
N       -2.58170344      -6.09468639       8.64540022
C       -1.95075375      -6.37797864       7.72536109
C       -1.18002608      -6.72403030       6.60150028
C       -0.47786631      -5.84073055       5.85983244
S       -0.76557712      -4.11955844       5.98009794
C       -0.13928710      -3.78300725       4.29569155
H       -0.99132150      -3.66955167       3.61746982
C        0.75215584      -2.53480332       4.32187414
C        1.23305378      -2.07822012       2.96136005
C        2.49588056      -2.47007107       2.48998975
C        2.93816997      -2.08723178       1.22308652
C        2.13085646      -1.28956703       0.41644973
C        0.88242492      -0.88242492       0.88242492
C        0.42712088      -1.27416667       2.14424501
C        0.61585069      -5.04424112       3.91046405
O        1.28760123      -5.14690935       2.88542443
N        0.43994830      -6.09918824       4.83409064
C        1.63220472      -6.89895053       5.02512664
C        2.86694754      -6.24393835       5.22391102
C        4.07507430      -6.94971428       5.24528944
C        4.06395737      -8.32814493       5.07879063
Br       5.69277654      -9.28525063       5.04408432
C        2.85708396      -8.99973080       4.90536041
C        1.64820003      -8.28595729       4.87015361
C       -1.26362425      -8.15441253       6.22612020
O       -1.10373705      -9.06383723       7.03021352
N       -1.63140079      -8.41318758       4.93533835
H        0.20773529      -1.69524174       4.77572523
H        1.62976899      -2.70158376       4.96169642
H        3.13657581      -3.11036918       3.09332295
H        3.90716669      -2.42370538       0.86301076
H        2.48116517      -0.99666174      -0.56967668
H       -0.55102938      -0.94889887       2.48970897
H        2.91224269      -5.16200758       5.32934822
H        5.01224931      -6.41092891       5.36234111
H        2.84447875     -10.07775407       4.76137594
H        0.75402522      -8.84989117       4.64896639
H       -1.74147410      -7.71065582       4.21653876
H       -1.72903024      -9.38493865       4.66364222
