178
Properties=species:S:1:pos:R:3 pbc="F F F"
N       10.73705656       5.17899278       1.02795409
C       10.36756583       4.61178543       0.09705321
C        9.91621966       3.91892131      -1.04007560
C        8.62861544       3.87899640      -1.44479691
S        7.32493300       4.35757118      -0.38128714
C        6.08755819       3.33043551      -1.25113006
H        5.93449508       2.40570307      -0.68521392
C        4.78878281       4.12905657      -1.42070600
C        3.64175615       3.34267317      -2.01791671
C        3.38144283       3.40847854      -3.39573209
C        2.35047705       2.66115774      -3.96656555
C        1.55156641       1.85155746      -3.16346142
C        1.79232894       1.79232894      -1.79232894
C        2.83228942       2.52680443      -1.21615078
C        6.74606298       2.97928820      -2.57491674
O        6.16500409       2.39608499      -3.48855801
N        8.10512154       3.36157019      -2.63624752
C        8.51057708       3.83009234      -3.94532454
C        7.68670600       4.75490140      -4.62290159
C        7.93109341       5.11616801      -5.95252868
C        9.01455040       4.56363874      -6.62241586
Br       9.31967301       4.99576905      -8.43638150
C        9.85566628       3.66793089      -5.96829007
C        9.59847461       3.29708463      -4.63846376
C       10.96923640       3.14268389      -1.73470025
O       12.05226174       3.62120812      -2.04655591
N       10.70520342       1.81531413      -1.92631965
H        4.45301108       4.50932212      -0.44608113
H        4.96146009       5.01749314      -2.04380801
H        4.00473011       4.01795111      -4.04729878
H        2.18149933       2.70241878      -5.03967679
H        0.75156812       1.27111726      -3.61517693
H        3.00669702       2.46578835      -0.14480515
H        6.81394321       5.18411603      -4.13525132
H        7.25539388       5.80204257      -6.45779495
H       10.69786410       3.22247751      -6.49297923
H       10.23495742       2.53607049      -4.21156695
H        9.81996818       1.36989591      -1.72556845
H       11.42504514       1.25531517      -2.36890240
N       -9.58239063      -6.96942377       1.66371916
C       -9.45498158      -6.22363307       0.79631661
C       -9.29934686      -5.31262299      -0.26324673
C       -8.11466410      -5.00449583      -0.83324882
S       -6.59934228      -5.40683009      -0.05761897
C       -5.67945804      -4.07768887      -0.91197686
H       -5.56714962      -3.22949996      -0.22876248
C       -4.32694396      -4.61946651      -1.39213491
C       -3.41641497      -3.57866123      -2.00726983
C       -3.37998611      -3.40582150      -3.39984585
C       -2.57290675      -2.42598631      -3.97930727
C       -1.77481199      -1.61723133      -3.17454197
C       -1.79232894      -1.79232894      -1.79232894
C       -2.60911914      -2.76185935      -1.20426614
C       -6.58986212      -3.65678576      -2.05362004
O       -6.25532820      -2.86296059      -2.93135829
N       -7.87281868      -4.24520965      -1.98491092
C       -8.41823922      -4.58486943      -3.28288530
C       -7.59523189      -5.25646402      -4.21281307
C       -8.00191767      -5.46198991      -5.53588252
C       -9.24783385      -5.00666202      -5.94610913
Br      -9.78360765      -5.22310525      -7.74511067
C      -10.08743726      -4.36301187      -5.04143811
C       -9.66956915      -4.14605300      -3.71840085
C      -10.55115270      -4.63040650      -0.66506135
O      -11.59234525      -5.23200188      -0.89567863
N      -10.51205331      -3.26410435      -0.67067955
H       -3.78501058      -5.07274611      -0.55065764
H       -4.47293608      -5.42739369      -2.12243147
H       -4.00987902      -4.01163676      -4.04846423
H       -2.57890654      -2.28717881      -5.05750955
H       -1.15006318      -0.85514434      -3.63265478
H       -2.61149534      -2.88202729      -0.12376790
H       -6.60239956      -5.60043225      -3.93047875
H       -7.32884997      -5.94902779      -6.23735364
H      -11.05882181      -3.99293561      -5.36156341
H      -10.32785338      -3.56815654      -3.08658494
H       -9.67758275      -2.71174986      -0.52609994
H      -11.36661125      -2.77362369      -0.90902777
N       -0.06035072       3.33782066      11.48992386
C       -0.23796629       4.04500620      10.59932556
C       -0.45493007       4.90885871       9.51142779
C       -1.05246601       4.54273390       8.35720884
S       -1.26756478       2.85818457       7.93804198
C       -1.33037280       3.19637423       6.14237673
H       -0.35316538       2.96745609       5.70479060
C       -2.45831586       2.37364916       5.50658036
C       -2.53297764       2.47130348       3.99806491
C       -3.41022255       3.38396387       3.39146703
C       -3.46411634       3.51119117       2.00289283
C       -2.65461181       2.71241895       1.19955453
C       -1.79232894       1.79232894       1.79232894
C       -1.72267314       1.66988013       3.18269136
C       -1.56060185       4.69528567       6.04438041
O       -1.78387733       5.28002936       4.98574040
N       -1.45847287       5.35410558       7.29036081
C       -2.40035997       6.44383222       7.44180177
C       -3.74923010       6.23296120       7.08231769
C       -4.66993224       7.28603878       7.04381908
C       -4.25512317       8.56857674       7.37690509
Br      -5.47288062      10.00936004       7.26958291
C       -2.93608669       8.79775136       7.75804919
C       -2.01189105       7.74066733       7.78146462
C        0.11121745       6.26557021       9.69226779
O       -0.08475167       6.94014894      10.69512516
N        0.95841454       6.69564922       8.70960253
H       -2.33619856       1.31165959       5.76055618
H       -3.43181582       2.66928955       5.92165588
H       -4.03799072       4.03369830       3.99829099
H       -4.12880696       4.24340998       1.55137796
H       -2.70073640       2.81814928       0.11897662
H       -1.04180483       0.94826240       3.62722329
H       -4.09902802       5.24539787       6.78888466
H       -5.69240697       7.09691051       6.72591392
H       -2.60334596       9.80288056       8.00709432
H       -0.98560519       7.99368749       8.00330218
H        1.13170942       6.20378095       7.84336102
H        1.38571873       7.60730742       8.82767402
N        0.70463483      -2.50472386      11.67873655
C        0.76242832      -3.28516680      10.83470293
C        0.83302514      -4.23850584       9.80368559
C        1.36471291      -4.00260688       8.58508896
S        1.66655249      -2.37375084       8.02348800
C        1.56695822      -2.84295148       6.25921406
H        0.57784304      -2.57143113       5.87613790
C        2.69851603      -2.15674357       5.48328577
C        2.64992119      -2.36716773       3.98525712
C        3.41065429      -3.38544597       3.38955319
C        3.34851068      -3.61513181       2.01455784
C        2.53871451      -2.81586077       1.21201001
C        1.79232894      -1.79232894       1.79232894
C        1.83859398      -1.56605692       3.17059373
C        1.68150371      -4.35828045       6.26048376
O        1.78052826      -5.03244656       5.23667226
N        1.62867092      -4.91677509       7.55749324
C        2.49929482      -6.06205416       7.72464498
C        3.82815728      -5.98159746       7.25475425
C        4.66573553      -7.10234655       7.23170802
C        4.18734057      -8.32220263       7.69106179
Br       5.28740363      -9.85624896       7.60817097
C        2.88850609      -8.42160930       8.18177185
C        2.04658063      -7.29768305       8.18975932
C        0.18714075      -5.53135799      10.12812181
O        0.41096399      -6.14576117      11.16330062
N       -0.76154543      -5.96406168       9.24432096
H        2.67231194      -1.07311185       5.66299055
H        3.67745697      -2.49593908       5.84936519
H        4.03524715      -4.03655293       3.99817993
H        3.92264082      -4.42657535       1.57437873
H        2.49403720      -3.00160801       0.14221708
H        1.24708288      -0.76441129       3.60579636
H        4.22391061      -5.04726951       6.86213044
H        5.67164400      -7.01547468       6.82811271
H        2.50505358      -9.37788198       8.53038528
H        1.02494612      -7.45465269       8.50299605
H       -0.96535383      -5.52336227       8.35742410
H       -1.24243627      -6.82945375       9.46224523
C       -0.00445707       0.01189536      -1.78238275
H       -0.66409135       0.67374010      -2.43557963
H        0.65740317      -0.63156657      -2.45157240
C       -0.90989263      -0.90692880      -0.91072765
C        0.90977584       0.90977584      -0.90977584
C       -0.00465871       1.77757030       0.00794375
H       -0.66225468       2.44313916      -0.64384735
H        0.64322798       2.43503045       0.67728295
C       -1.78241447       0.00034974      -0.00472694
H       -2.45427497      -0.65498947       0.64260836
H       -2.43311707       0.67328779      -0.65473579
C       -0.91132561       0.90220522       0.91563759
C       -0.01476271      -0.02253852       1.78660255
H       -0.67934791      -0.69751639       2.42135241
H        0.63392994       0.61504881       2.47327442
C        0.01484550      -1.77751727      -0.01636693
H        0.67870853      -2.42144646      -0.68295456
H       -0.62264859      -2.45592969       0.64226336
C        1.78714474       0.01002794       0.00389507
H        2.44202412       0.67113390       0.66197326
H        2.45385902      -0.65136977      -0.64189061
C        0.91606151      -0.90478549       0.90901405
