133
Properties=species:S:1:pos:R:3 pbc="F F F"
C        0.00000000       0.00000000       0.00000000
O        7.31137971       4.76682013      -4.95774397
C        6.69080761       3.94466883      -4.28045662
N        5.31612017       4.00679707      -4.19029763
N        4.62810209       3.20125913      -3.34176028
C        3.33821066       3.30053136      -3.38408208
C        2.49009158       2.47355429      -2.50246320
C        1.11334181       2.41875069      -2.73437532
C        0.30811503       1.61486331      -1.92221243
C        0.88170240       0.88170240      -0.88170240
C        2.25348605       0.94361295      -0.64174165
C        3.06089153       1.73942659      -1.45574230
C        7.36804925       2.83389203      -3.46304721
N        8.80221612       2.72179523      -3.78456461
C        9.24423074       1.86591948      -4.80098590
C       10.49102034       2.13671371      -5.38996020
C       11.05197287       1.28906705      -6.34973847
C       10.38425675       0.12819230      -6.72212225
C        9.17040580      -0.17964527      -6.11600778
Br       8.27369543      -1.77847734      -6.58827468
C        8.61207465       0.66838326      -5.15240883
H        4.84880643       4.73431017      -4.72118694
H        2.82404934       3.98461049      -4.08350198
H        0.65869769       2.97853756      -3.54737178
H       -0.76149226       1.56099501      -2.11023835
H        2.70407545       0.37620483       0.16868451
H        4.13162667       1.78160132      -1.26734490
H        6.83047904       1.89029746      -3.58035330
H        7.29145795       3.12325423      -2.40865328
H        9.18531229       3.65940562      -3.92429829
H       11.04378407       3.02747248      -5.09866378
H       12.01251055       1.53499129      -6.79407555
H       10.82187754      -0.53210037      -7.46513155
H        7.68700068       0.36393757      -4.67648658
O       -4.05006727      -6.35413442      -6.63174212
C       -3.24469580      -5.75597230      -5.91526497
N       -3.68632740      -4.88812316      -4.93876432
N       -2.81830656      -4.11665727      -4.23615767
C       -3.33568731      -3.38516250      -3.30197429
C       -2.48458359      -2.50482155      -2.47670393
C       -3.02095041      -1.91759787      -1.32791953
C       -2.21280516      -1.10668458      -0.52570103
C       -0.88170240      -0.88170240      -0.88170240
C       -0.34776383      -1.45771141      -2.03336541
C       -1.15013099      -2.27386931      -2.83206012
C       -1.72053869      -5.88113196      -6.06331785
N       -1.35296262      -6.97409848      -6.98151486
C       -1.13785512      -8.27187860      -6.50140240
C       -1.27261416      -9.33698909      -7.40809100
C       -0.99305955     -10.65664583      -7.04107301
C       -0.54163407     -10.93642082      -5.75651640
C       -0.35842681      -9.88901745      -4.85932406
Br       0.29375634     -10.25658555      -3.12066355
C       -0.63525440      -8.56783004      -5.22978231
H       -4.68974710      -4.78929109      -4.82526534
H       -4.41696166      -3.40146749      -3.07373266
H       -4.05320654      -2.09395085      -1.03744964
H       -2.62541450      -0.66007240       0.37574579
H        0.68749139      -1.28347674      -2.31561042
H       -0.72809059      -2.72463100      -3.72785130
H       -1.24682202      -5.97109798      -5.08320980
H       -1.36665479      -4.94546590      -6.51124475
H       -2.01797096      -6.99312631      -7.75791892
H       -1.60274493      -9.14101703      -8.42615837
H       -1.11978780     -11.45799364      -7.76379595
H       -0.32103113     -11.96126064      -5.47261696
H       -0.43480514      -7.78164649      -4.51097320
O       -5.91740530       6.96131025       4.15722826
C       -5.30090708       6.27816750       3.33685849
N       -4.67408712       5.11309490       3.72603286
N       -3.87595626       4.42282319       2.87234206
C       -3.38881337       3.31135056       3.32266017
C       -2.50545112       2.48038686       2.48027109
C       -2.19348546       1.18187952       2.89110283
C       -1.38177740       0.37903221       2.08438116
C       -0.88170240       0.88170240       0.88170240
C       -1.18273946       2.18073100       0.47537019
C       -1.99907837       2.98189159       1.27509046
C       -5.13913979       6.66666976       1.85917895
N       -6.00652442       7.80282607       1.49922548
C       -7.30401138       7.58967274       1.01745200
C       -8.23231116       8.63641404       1.14896906
C       -9.52350131       8.54661817       0.62065891
C       -9.90617441       7.40927235      -0.08087546
C       -8.98540706       6.38190738      -0.26054613
Br      -9.48545595       4.84660532      -1.24856850
C       -7.69175407       6.47519014       0.26592254
H       -4.76691817       4.83888533       4.69850004
H       -3.62396703       2.93377634       4.33441844
H       -2.58522519       0.77836432       3.82101752
H       -1.14937050      -0.63625409       2.39662470
H       -0.79374978       2.57703597      -0.45918998
H       -2.23473273       3.99375990       0.95208026
H       -5.28857328       5.79654203       1.21601448
H       -4.10129896       6.99388450       1.72818199
H       -6.02593426       8.46528788       2.27779405
H       -7.94937035       9.54627986       1.67427013
H      -10.22034663       9.36996157       0.75126918
H      -10.90814062       7.34114521      -0.49437710
H       -6.99643439       5.66904090       0.06194953
O        5.43083666      -4.40169136       7.20341578
C        4.63355254      -3.67215252       6.61022801
N        4.33024501      -3.89878691       5.28418294
N        3.56645215      -3.02784393       4.57682543
C        3.29310664      -3.37074540       3.35897206
C        2.47195481      -2.49710039       2.49705386
C        1.98968246      -2.99349808       1.28328728
C        1.18719323      -2.18214465       0.47585289
C        0.88170240      -0.88170240       0.88170240
C        1.37097753      -0.38079513       2.08706800
C        2.16611398      -1.19116799       2.89877845
C        3.95533270      -2.45395043       7.25570537
N        4.17884537      -2.41749282       8.71223778
C        3.28221465      -3.03809374       9.59082773
C        3.75533418      -3.39830366      10.86405641
C        2.91146701      -3.94269466      11.83661672
C        1.55941051      -4.11272771      11.56243308
C        1.06437742      -3.71915852      10.32323238
Br      -0.78273565      -3.91040346       9.95582496
C        1.91014523      -3.17073373       9.35198779
H        4.76883070      -4.69753914       4.83793370
H        3.64199837      -4.32535908       2.92480435
H        2.21434408      -4.00735659       0.96290636
H        0.80025641      -2.57202752      -0.46254283
H        1.13750379       0.63189978       2.40599176
H        2.54248825      -0.79745692       3.84062772
H        2.89740266      -2.41739275       6.98633439
H        4.43059955      -1.56273392       6.83003199
H        5.13343007      -2.72620837       8.90937776
H        4.80517306      -3.25398603      11.11076124
H        3.31291900      -4.22171722      12.80694116
H        0.90323327      -4.53231488      12.31936057
H        1.47044677      -2.83833083       8.41864723
