154
Properties=species:S:1:pos:R:3 pbc="F F F"
O        8.22128373       5.67672416      -5.86764799
C        7.60071164       4.85457286      -5.19036064
N        6.22602419       4.91670110      -5.10020165
N        5.53800612       4.11116316      -4.25166430
C        4.24811469       4.21043538      -4.29398611
C        3.39999560       3.38345831      -3.41236723
C        2.02324583       3.32865472      -3.64427934
C        1.21801905       2.52476734      -2.83211645
C        1.79160643       1.79160643      -1.79160643
C        3.16339008       1.85351697      -1.55164567
C        3.97079555       2.64933061      -2.36564633
C        8.27795328       3.74379605      -4.37295124
N        9.71212014       3.63169925      -4.69446864
C       10.15413476       2.77582351      -5.71088992
C       11.40092437       3.04661773      -6.29986422
C       11.96187689       2.19897107      -7.25964249
C       11.29416077       1.03809633      -7.63202627
C       10.08030983       0.73025876      -7.02591180
Br       9.18359945      -0.86857332      -7.49817871
C        9.52197868       1.57828729      -6.06231285
H        5.75871045       5.64421420      -5.63109096
H        3.73395336       4.89451451      -4.99340600
H        1.56860171       3.88844158      -4.45727581
H        0.14841177       2.47089903      -3.02014238
H        3.61397947       1.28610886      -0.74121951
H        5.04153070       2.69150535      -2.17724892
H        7.74038306       2.80020149      -4.49025732
H        8.20136197       4.03315825      -3.31855730
H       10.09521631       4.56930964      -4.83420231
H       11.95368810       3.93737651      -6.00856780
H       12.92241457       2.44489531      -7.70397957
H       11.73178157       0.37780365      -8.37503558
H        8.59690470       1.27384159      -5.58639061
O       -8.20197063      -5.54491880      -6.01876645
C       -7.57256764      -4.72006375      -5.35301375
N       -6.21128862      -4.85396460      -5.17767373
N       -5.52529453      -4.03924881      -4.33629024
C       -4.24328607      -4.21329811      -4.29595199
C       -3.39831309      -3.38425186      -3.41325618
C       -2.00988049      -3.42093953      -3.56535986
C       -1.20512392      -2.61663396      -2.75314496
C       -1.79160643      -1.79160643      -1.79160643
C       -3.17596643      -1.76180121      -1.63078509
C       -3.98230941      -2.55804723      -2.44541585
C       -8.22727900      -3.52616502      -4.64125655
N       -9.63183750      -3.35291530      -5.05353524
C       -9.96411984      -2.53566883      -6.14105953
C      -11.18971743      -2.77051671      -6.78717218
C      -11.64421546      -1.95140023      -7.82487477
C      -10.88855611      -0.85421939      -8.22150787
C       -9.69454147      -0.57957706      -7.56236186
Br      -8.67891776       0.93524265      -8.06952973
C       -9.24289376      -1.39869874      -6.52098632
H       -5.75906337      -5.63698836      -5.63796389
H       -3.73229666      -4.96572188      -4.92385534
H       -1.54440348      -4.05291421      -4.31700141
H       -0.12532491      -2.63435221      -2.87977606
H       -3.63680319      -1.12261241      -0.88189224
H       -5.06255597      -2.52858916      -2.31913983
H       -7.62864042      -2.62299560      -4.77920585
H       -8.22753851      -3.75597718      -3.56956183
H      -10.06170070      -4.27414380      -5.16288377
H      -11.81013828      -3.60979622      -6.47969791
H      -12.59118114      -2.16894401      -8.31116431
H      -11.24351026      -0.21583789      -9.02527265
H       -8.32955948      -1.11895111      -6.00862631
O       -5.03383348       6.92363233       7.80819007
C       -4.21596637       6.31170771       7.11797106
N       -4.62218090       5.63154591       5.98920013
N       -3.76489908       4.83908469       5.29684981
C       -4.23526958       4.29824162       4.21902497
C       -3.39105498       3.41532920       3.38943695
C       -3.83447656       3.04422879       2.11747454
C       -3.02744850       2.23266266       1.31479169
C       -1.79160643       1.79160643       1.79160643
C       -1.35227777       2.15165700       3.06461797
C       -2.15253249       2.96802665       3.86521335
C       -2.72119657       6.21387347       7.45963053
N       -2.35359217       7.13230756       8.55238831
C       -1.92516064       8.43710275       8.27858480
C       -2.05361104       9.39657654       9.29721874
C       -1.57429455      10.70099008       9.14520582
C       -0.92559195      11.06707479       7.97161663
C       -0.74865269      10.11743731       6.97039038
Br       0.16858312      10.59650418       5.38528378
C       -1.22592523       8.81074869       7.12590490
H       -5.60604536       5.68166805       5.74630220
H       -5.26687851       4.48555653       3.86943884
H       -4.79071503       3.38980779       1.73379628
H       -3.36558848       1.95430983       0.31955487
H       -0.39174035       1.80872921       3.44083829
H       -1.80386856       3.24986817       4.85654824
H       -2.11354720       6.35439639       6.56289829
H       -2.54283358       5.19319592       7.81704802
H       -3.10945195       7.14854674       9.24072957
H       -2.53750408       9.12809660      10.23403173
H       -1.70129029      11.42147492       9.94852425
H       -0.55006098      12.07947670       7.85508312
H       -1.02512470       8.09487872       6.33713348
O        5.28566414      -6.38247896       8.09751278
C        4.45913280      -5.74131148       7.44520085
N        4.73295828      -5.36204640       6.14792226
N        3.89873556      -4.53914953       5.46294849
C        4.22119492      -4.29870713       4.23263413
C        3.38658940      -3.41471832       3.39451341
C        3.61406841      -3.36529063       2.01682085
C        2.80871080      -2.55315068       1.21304135
C        1.79160643      -1.79160643       1.79160643
C        1.57016828      -1.83105515       3.16732930
C        2.36775089      -2.64677848       3.97124313
C        3.10620638      -5.27994051       8.00855368
N        2.82158696      -5.90288811       9.31381296
C        2.13014513      -7.11808804       9.39261503
C        2.30116417      -7.89572439      10.55051776
C        1.58593375      -9.07931180      10.75524491
C        0.65603639      -9.49767532       9.81057166
C        0.44022291      -8.71653116       8.67972633
Br      -0.85269058      -9.25828174       7.40761369
C        1.15459494      -7.52973333       8.47825055
H        5.62216595      -5.65503730       5.75681236
H        5.11100357      -4.75190738       3.75896293
H        4.39727730      -3.96120002       1.55584179
H        2.97616574      -2.52422822       0.13905922
H        0.78082468      -1.23808084       3.62240233
H        2.18875599      -2.67755106       5.04397792
H        2.31147613      -5.44234574       7.27702000
H        3.18193739      -4.19883322       8.17230691
H        3.68936416      -5.95762140       9.85174271
H        3.00671745      -7.57763268      11.31528228
H        1.75171901      -9.66302769      11.65654276
H        0.09783211     -10.41532633       9.97146236
H        0.91992091      -6.93273297       7.60448302
C       -0.00445707       0.01189536      -1.78238275
H       -0.66409135       0.67374010      -2.43557963
H        0.65740317      -0.63156657      -2.45157240
C       -0.90989263      -0.90692880      -0.91072765
C        0.90977584       0.90977584      -0.90977584
C       -0.00465871       1.77757030       0.00794375
H       -0.66225468       2.44313916      -0.64384735
H        0.64322798       2.43503045       0.67728295
C       -1.78241447       0.00034974      -0.00472694
H       -2.45427497      -0.65498947       0.64260836
H       -2.43311707       0.67328779      -0.65473579
C       -0.91132561       0.90220522       0.91563759
C       -0.01476271      -0.02253852       1.78660255
H       -0.67934791      -0.69751639       2.42135241
H        0.63392994       0.61504881       2.47327442
C        0.01484550      -1.77751727      -0.01636693
H        0.67870853      -2.42144646      -0.68295456
H       -0.62264859      -2.45592969       0.64226336
C        1.78714474       0.01002794       0.00389507
H        2.44202412       0.67113390       0.66197326
H        2.45385902      -0.65136977      -0.64189061
C        0.91606151      -0.90478549       0.90901405
