141
Properties=species:S:1:pos:R:3 pbc="F F F"
C        0.00000000       0.00000000       0.00000000
O        7.31137971       4.76682013      -4.95774397
C        6.69080761       3.94466883      -4.28045662
N        5.31612017       4.00679707      -4.19029763
N        4.62810209       3.20125913      -3.34176028
C        3.33821066       3.30053136      -3.38408208
C        2.49009158       2.47355429      -2.50246320
C        1.11334181       2.41875069      -2.73437532
C        0.30811503       1.61486331      -1.92221243
C        0.88170240       0.88170240      -0.88170240
C        2.25348605       0.94361295      -0.64174165
C        3.06089153       1.73942659      -1.45574230
C        7.36804925       2.83389203      -3.46304721
N        8.80221612       2.72179523      -3.78456461
C        9.24423074       1.86591948      -4.80098590
C       10.49102034       2.13671371      -5.38996020
C       11.05197287       1.28906705      -6.34973847
C       10.38425675       0.12819230      -6.72212225
C        9.17040580      -0.17964527      -6.11600778
C        8.61207465       0.66838326      -5.15240883
H        4.84880643       4.73431017      -4.72118694
H        2.82404934       3.98461049      -4.08350198
H        0.65869769       2.97853756      -3.54737178
H       -0.76149226       1.56099501      -2.11023835
H        2.70407545       0.37620483       0.16868451
H        4.13162667       1.78160132      -1.26734490
H        6.83047904       1.89029746      -3.58035330
H        7.29145795       3.12325423      -2.40865328
H        9.18531229       3.65940562      -3.92429829
H       11.04378407       3.02747248      -5.09866378
H       12.01251055       1.53499129      -6.79407555
H       10.82187754      -0.53210037      -7.46513155
H        7.68700068       0.36393757      -4.67648658
C        8.48827498      -1.39588261      -6.47526292
C        7.91699041      -2.41448139      -6.77613910
Br       6.99327159      -4.06146946      -7.26263044
O       -7.10028752      -5.66973869      -4.26591759
C       -6.51159529      -4.88492347      -3.51941430
N       -5.23944062      -4.44893076      -3.82484349
N       -4.52226168      -3.69875036      -2.95010947
C       -3.36532532      -3.29262681      -3.36487197
C       -2.49908462      -2.47213047      -2.49489397
C       -1.37656767      -1.84653842      -3.04336172
C       -0.56838951      -1.04433030      -2.23247097
C       -0.88170240      -0.88170240      -0.88170240
C       -1.99491660      -1.51387289      -0.33005116
C       -2.80784778      -2.30923583      -1.13897681
C       -7.10014837      -4.36665253      -2.19818761
N       -8.52501647      -4.71953382      -2.06402568
C       -9.52427416      -3.85642493      -2.53043703
C      -10.78185911      -4.40898750      -2.82684763
C      -11.86345643      -3.61267828      -3.21464368
C      -11.71535243      -2.23245766      -3.28676121
C      -10.49038955      -1.66382273      -2.95255604
C       -9.40959052      -2.46246037      -2.56081585
H       -4.83117352      -4.78066112      -4.69246889
H       -2.98999542      -3.52378095      -4.37838544
H       -1.12944973      -1.95956799      -4.09558931
H        0.29778526      -0.54619687      -2.66132950
H       -2.24140163      -1.39187217       0.72167802
H       -3.67796783      -2.79749488      -0.70511019
H       -6.91491442      -3.29556043      -2.09065495
H       -6.56080762      -4.87307032      -1.38948750
H       -8.67080202      -5.65969461      -2.43851957
H      -10.92934416      -5.48465918      -2.75591700
H      -12.81895335      -4.07401737      -3.44860666
H      -12.55673327      -1.61362108      -3.58455438
H       -8.48920950      -1.97070923      -2.26750609
C      -10.33914449      -0.23244852      -2.99606228
C      -10.21247675       0.96632739      -3.03249876
Br     -10.00766572       2.90464663      -3.09141347
O       -4.08402455       6.15759669       6.79432256
C       -3.27071459       5.55196462       6.09325385
N       -3.69681572       4.79231593       5.02408322
N       -2.83460820       4.00853800       4.32797530
C       -3.32957705       3.38729185       3.30595520
C       -2.48253763       2.50527157       2.47829985
C       -2.96964868       2.04424524       1.25257389
C       -2.16215528       1.23292503       0.45011046
C       -0.88170240       0.88170240       0.88170240
C       -0.39802586       1.33155695       2.10925784
C       -1.19912904       2.14790065       2.90903074
C       -1.75737590       5.54896010       6.35865250
N       -1.38441658       6.54232338       7.38183600
C       -1.04122373       7.85066584       7.01924655
C       -1.16894060       8.85568437       7.99306928
C       -0.76877307      10.17278387       7.74922145
C       -0.20135146      10.50788057       6.52533927
C       -0.02491994       9.51607861       5.56576977
C       -0.42274838       8.19700261       5.81311576
H       -4.69305395       4.77909195       4.83215764
H       -4.38623866       3.50271771       3.00320544
H       -3.96138801       2.31951126       0.90370775
H       -2.53514931       0.88462662      -0.51003482
H        0.59747795       1.05875333       2.45032040
H       -0.81602633       2.50000505       3.86454152
H       -1.20466153       5.67189641       5.42457186
H       -1.50644305       4.55938214       6.75754027
H       -2.10398063       6.55696642       8.10806915
H       -1.58932040       8.61360510       8.96699484
H       -0.89317597      10.92797567       8.52042575
H        0.11281340      11.53038563       6.33733650
H       -0.22424974       7.45095719       5.05221790
C        0.58985604       9.85029284       4.30721849
C        1.10473092      10.13019726       3.25318178
Br       1.93724006      10.58277904       1.54889358
O        4.20912037      -5.78984190       7.03698153
C        3.38608569      -5.16685971       6.36298766
N        3.74828158      -4.61082832       5.15410497
N        2.89969362      -3.80535953       4.46606835
C        3.31921269      -3.38917778       3.31443363
C        2.47916334      -2.50539441       2.48155132
C        2.84288181      -2.27047256       1.15311344
C        2.03655978      -1.45860344       0.35002755
C        0.88170240      -0.88170240       0.88170240
C        0.52298146      -1.10590313       2.20995606
C        1.32203371      -1.92214432       3.01188240
C        1.93655498      -4.91990000       6.80853352
N        1.59154823      -5.71863304       7.99839469
C        1.04354596      -7.00059983       7.86699033
C        1.18217405      -7.88680876       8.94871144
C        0.59371469      -9.15488597       8.94217773
C       -0.17590641      -9.55460303       7.85587468
C       -0.36202618      -8.67282721       6.79596729
C        0.22486563      -7.40205289       6.80594822
H        4.70196905      -4.76057213       4.84176236
H        4.30103813      -3.68733932       2.90378437
H        3.73490945      -2.72226041       0.72743717
H        2.31147543      -1.28599712      -0.68773144
H       -0.37413722      -0.65696355       2.62876944
H        1.03607181      -2.09764454       4.04685655
H        1.24785488      -5.07774262       5.97553229
H        1.86684035      -3.86366158       7.09286352
H        2.39830559      -5.74473096       8.62597965
H        1.76099214      -7.58852396       9.82040424
H        0.73133628      -9.81994823       9.79029287
H       -0.63600482     -10.53840145       7.85251209
H        0.01475948      -6.73435968       5.97830566
C       -1.18291530      -9.06930055       5.68127004
C       -1.87040993      -9.40134696       4.74771110
Br      -2.98203061      -9.93823794       3.23822524
