166
Properties=species:S:1:pos:R:3 pbc="F F F"
C        0.33136975       3.79202409      -5.21056878
O        1.56465147       4.18260453      -4.61236828
C        2.01265987       3.37283351      -3.59857744
C        1.20479070       2.57632924      -2.78844539
C        1.79306794       1.79306794      -1.79306794
C        3.17571979       1.79429045      -1.59758571
C        3.99224967       2.59856979      -2.39811804
C        5.43843527       2.54382035      -2.21975689
H        5.96816772       1.77270027      -2.77001875
C        6.22193758       3.42295206      -1.37481787
S        5.67192188       4.79602850      -0.51394751
C        7.22608331       5.14016054       0.18201343
N        7.41977279       6.16705581       0.93268485
C        8.66621903       6.45031848       1.50825554
C        8.72211751       6.66974450       2.88843369
C        9.92630433       7.00280406       3.51556945
C       11.08752440       7.11717226       2.75611416
Br      12.72107374       7.55882846       3.59733990
C       11.04863715       6.92290669       1.37698992
C        9.83521287       6.61240824       0.75413408
N        8.11311335       4.19462243      -0.18315911
C        7.66913539       3.28319988      -1.07453605
O        8.34170421       2.42136118      -1.61133427
C        3.39910327       3.39201666      -3.38369783
O        4.18454792       4.18795573      -4.17964338
H        0.19081197       4.39988022      -6.10955319
H       -0.51164100       3.98870813      -4.54116070
H        0.35465049       2.74075847      -5.51872110
H        0.12686361       2.55909701      -2.90667536
H        3.61679324       1.16681632      -0.82677100
H        7.81090827       6.59778258       3.47809542
H        9.94125761       7.17908174       4.58792444
H       11.94887922       7.02927782       0.77740092
H        9.80766633       6.51430213      -0.32785529
H        9.07692954       4.19819640       0.10204063
H        3.55904178       4.68105482      -4.74553516
C       -5.83630328      -0.89441957      -2.60323976
O       -5.12184788      -1.82334451      -3.41443189
C       -3.86314274      -2.14770430      -2.97322377
C       -3.05609220      -1.33693041      -2.17654273
C       -1.79306794      -1.79306794      -1.79306794
C       -1.32705772      -3.04703125      -2.19350698
C       -2.12530342      -3.86189930      -3.00173478
C       -1.64795257      -5.19168903      -3.36237091
H       -1.85888602      -5.99190560      -2.66009512
C       -0.91929309      -5.53236213      -4.56805229
S       -0.57581017      -4.50955952      -5.89652820
C        0.30839597      -5.72540336      -6.76722303
N        0.78944759      -5.50376344      -7.93982790
C        1.51312572      -6.47287094      -8.64853676
C        2.77017238      -6.12210887      -9.15149183
C        3.52096176      -7.02777435      -9.90672634
C        3.01109642      -8.29792504     -10.16175388
Br       4.02324077      -9.53105835     -11.17474471
C        1.75197100      -8.65934101      -9.68718390
C        0.99747334      -7.73924549      -8.95171488
N        0.39033009      -6.85029331      -6.03093166
C       -0.30456204      -6.84873790      -4.87357138
O       -0.45009031      -7.79876285      -4.12554650
C       -3.38272041      -3.39654283      -3.39555452
O       -4.18080462      -4.18257831      -4.18876409
H       -6.87149001      -0.87156021      -2.95719517
H       -5.42743338       0.11537712      -2.70617156
H       -5.84911889      -1.21077709      -1.55423407
H       -3.38291434      -0.35376520      -1.85595644
H       -0.34649254      -3.39085387      -1.87303415
H        3.15971071      -5.12343049      -8.96687566
H        4.49033755      -6.72718366     -10.29556880
H        1.34188212      -9.64323517      -9.89940308
H       -0.00388465      -8.01452112      -8.63141798
H        0.85504039      -7.68513135      -6.34299435
H       -4.97061040      -3.63879323      -4.37622814
C       -1.02042816       2.41886930       5.89466515
O       -1.89086174       3.29073715       5.17802538
C       -2.18288951       2.90889713       3.89228417
C       -1.37173906       2.11205913       3.08576715
C       -1.79306794       1.79306794       1.79306794
C       -3.01270381       2.25804008       1.29685206
C       -3.82718088       3.06688928       2.09486734
C       -5.12356829       3.49543103       1.58301321
H       -5.95657883       2.81697077       1.73733714
C       -5.39151100       4.73926622       0.88893029
S       -4.30810394       6.03941495       0.63437900
C       -5.45637151       6.98792079      -0.26006188
N       -5.17347778       8.16811192      -0.68744595
C       -6.08745816       8.93951672      -1.41869291
C       -5.67061477       9.47463805      -2.64182450
C       -6.51849301      10.29107579      -3.39602986
C       -7.79695519      10.57552820      -2.92390090
Br      -8.95235741      11.67150117      -3.94129628
C       -8.22347179      10.06908272      -1.69800060
C       -7.36059784       9.27169442      -0.93880523
N       -6.60365393       6.29868862      -0.41144767
C       -6.67128075       5.11731418       0.23827639
O       -7.65307256       4.40130472       0.32002237
C       -3.39605079       3.39606486       3.38270211
O       -4.18228274       4.18882067       4.18104361
H       -1.02414339       2.73333595       6.94276604
H        0.00736615       2.49810626       5.52748771
H       -1.37545438       1.38296477       5.85571091
H       -0.41425822       1.74230472       3.43607304
H       -3.33035473       1.98726803       0.29275781
H       -4.66524975       9.26644563      -3.00109995
H       -6.16694957      10.70357128      -4.33810594
H       -9.21384272      10.30351735      -1.31660395
H       -7.68556072       8.92550247       0.03876057
H       -7.40805907       6.65933799      -0.89431175
H       -3.66255593       4.32615072       4.99692512
C        5.85365799      -0.92845422       2.55185041
O        5.13814825      -1.84139329       3.38008274
C        3.87159959      -2.15711106       2.95536017
C        3.06469619      -1.34623013       2.15863902
C        1.79306794      -1.79306794       1.79306794
C        1.31830816      -3.03786717       2.21142061
C        2.11648615      -3.85263000       3.01982136
C        1.62918460      -5.17354110       3.39928682
H        1.82445131      -5.98315570       2.70327973
C        0.90969752      -5.49405604       4.61595395
S        0.59075812      -4.45400359       5.93713618
C       -0.29683380      -5.65143668       6.82962755
N       -0.76325994      -5.41263471       8.00476898
C       -1.48948071      -6.36671727       8.73104542
C       -2.73749088      -5.99762111       9.24329808
C       -3.48967551      -6.88750263      10.01571182
C       -2.99035574      -8.16021127      10.27872697
Br      -4.00456133      -9.37211811      11.31500551
C       -1.74008025      -8.53968784       9.79494632
C       -0.98383128      -7.63521187       9.04210644
N       -0.39812303      -6.78297564       6.10604227
C        0.28459259      -6.80068739       4.94159133
O        0.41243005      -7.75988336       4.20208625
C        3.38271156      -3.39640835       3.39569785
O        4.18086958      -4.18249565       4.18878179
H        6.89267507      -0.91276803       2.89480228
H        5.45637285       0.08658017       2.64843515
H        5.85221157      -1.25578057       1.50613792
H        3.39831321      -0.36991499       1.82440778
H        0.33093169      -3.37470675       1.90474213
H       -3.11857229      -4.99688557       9.05228216
H       -4.45176058      -6.57276658      10.41140891
H       -1.33800833      -9.52556991      10.01319454
H        0.01121247      -7.92426024       8.71435104
H       -0.86816565      -7.60962437       6.43162659
H        4.97818664      -3.64509624       4.36234888
C       -0.00445707       0.01189536      -1.78238275
H       -0.66409135       0.67374010      -2.43557963
H        0.65740317      -0.63156657      -2.45157240
C       -0.90989263      -0.90692880      -0.91072765
C        0.90977584       0.90977584      -0.90977584
C       -0.00465871       1.77757030       0.00794375
H       -0.66225468       2.44313916      -0.64384735
H        0.64322798       2.43503045       0.67728295
C       -1.78241447       0.00034974      -0.00472694
H       -2.45427497      -0.65498947       0.64260836
H       -2.43311707       0.67328779      -0.65473579
C       -0.91132561       0.90220522       0.91563759
C       -0.01476271      -0.02253852       1.78660255
H       -0.67934791      -0.69751639       2.42135241
H        0.63392994       0.61504881       2.47327442
C        0.01484550      -1.77751727      -0.01636693
H        0.67870853      -2.42144646      -0.68295456
H       -0.62264859      -2.45592969       0.64226336
C        1.78714474       0.01002794       0.00389507
H        2.44202412       0.67113390       0.66197326
H        2.45385902      -0.65136977      -0.64189061
C        0.91606151      -0.90478549       0.90901405
