170
Properties=species:S:1:pos:R:3 pbc="F F F"
C        1.79136462       1.79136462      -1.79136462
C        2.82433847       1.22014309      -2.52715015
C        3.62591961       2.02990468      -3.33791649
C        3.40697308       3.41523902      -3.42319702
C        2.36190178       3.96909410      -2.66861416
C        1.55595659       3.16229561      -1.85687829
C        4.23778872       4.25808991      -4.28032469
C        4.34301308       5.61742356      -4.50510651
C        5.34687999       5.79331123      -5.49108293
C        5.79636563       4.53223796      -5.82122924
C        6.77462178       4.05634864      -6.75558362
N        7.50004375       4.87942504      -7.44714249
N        8.36415413       4.32760993      -8.36443967
C        8.03817728       3.26333924      -9.19921401
O        6.99116431       2.62127346      -9.13995194
C        9.08063386       2.84132300     -10.18134974
C        9.13067606       1.45933148     -10.44812098
C       10.08213526       0.92467971     -11.31807468
C       10.99821087       1.76504924     -11.93927291
C       10.95037188       3.13940939     -11.70416347
C        9.99163570       3.68463065     -10.83605838
O        5.12988335       3.60115971      -5.07966348
H        3.01605142       0.15135652      -2.48366075
H        4.42732593       1.56366317      -3.90821130
H        2.15427911       5.03560865      -2.70775042
H        0.74883550       3.61371879      -1.28620354
H        3.76536677       6.39344050      -4.02376172
H        5.69671433       6.72068020      -5.92371321
H        6.88672839       2.96034364      -6.81908871
H        9.11031881       4.95443976      -8.65066180
H        8.42133543       0.78499731      -9.96803385
H       10.10351948      -0.14605488     -11.50789867
H       11.74257441       1.35320495     -12.61699995
H       11.66394880       3.78225386     -12.21620273
C        9.98996178       5.12044682     -10.72638102
C        9.98855988       6.32294286     -10.63452624
Br       9.98629312       8.26727726     -10.48600482
C       -1.79136462      -1.79136462      -1.79136462
C       -1.72664103      -3.17544562      -1.66954507
C       -2.53979400      -3.97937769      -2.47456910
C       -3.42407381      -3.41309741      -3.40823791
C       -3.46863609      -2.01498155      -3.51599239
C       -2.65771958      -1.20618172      -2.71122918
C       -4.28188345      -4.25428253      -4.24003734
C       -5.15740842      -4.02412806      -5.28400667
C       -5.70026142      -5.28237735      -5.64863538
C       -5.13315034      -6.21292138      -4.80376110
C       -5.29202469      -7.63119919      -4.66333015
N       -6.04379925      -8.30719434      -5.47561769
N       -6.18479107      -9.65156228      -5.21985038
C       -6.36431448     -10.18779031      -3.94862575
O       -6.30535359      -9.54498885      -2.90204727
C       -6.56902344     -11.66469624      -3.86958692
C       -6.01463830     -12.28843971      -2.73505051
C       -6.10016458     -13.66980974      -2.55491534
C       -6.74567085     -14.45080507      -3.50605710
C       -7.31989528     -13.84830761      -4.62574186
C       -7.24383671     -12.45889685      -4.80959117
O       -4.26531068      -5.59027645      -3.95511941
H       -1.05452282      -3.64213125      -0.95441462
H       -2.47669585      -5.06024518      -2.36225937
H       -4.14121029      -1.53427726      -4.22215062
H       -2.71434288      -0.12538319      -2.80903176
H       -5.38570330      -3.06679782      -5.73006787
H       -6.42643603      -5.49274266      -6.42192905
H       -4.71393793      -8.10232957      -3.84989324
H       -6.50825315     -10.18743078      -6.01973643
H       -5.50277385     -11.69172398      -1.97986876
H       -5.66304871     -14.13042193      -1.67189263
H       -6.81381905     -15.52790203      -3.37105823
H       -7.83829418     -14.47561818      -5.34849303
C       -7.93422674     -11.94048945      -5.96207344
C       -8.51242840     -11.50632325      -6.92727733
Br      -9.44733156     -10.80431323      -8.48793040
C       -1.79136462       1.79136462       1.79136462
C       -1.68176075       3.17582077       1.71405020
C       -2.49493880       3.98000325       2.51879874
C       -3.42391467       3.41357885       3.40791561
C       -3.51336191       2.01490077       3.47134736
C       -2.70257119       1.20591583       2.66664346
C       -4.28142114       4.25555345       4.23922873
C       -5.19502859       4.02139550       5.24911907
C       -5.71111710       5.28429620       5.63586085
C       -5.09090092       6.22173961       4.83719229
C       -5.20310155       7.64777587       4.73567661
N       -5.95898863       8.32203893       5.54558372
N       -6.05198444       9.67711759       5.32710170
C       -6.17637680      10.25620580       4.06814793
O       -6.10449327       9.64333778       3.00455865
C       -6.33450854      11.74039538       4.02840268
C       -5.72725204      12.38033191       2.93054457
C       -5.76605211      13.76842557       2.79041197
C       -6.41690277      14.54019879       3.74543147
C       -7.04289227      13.92253967       4.82851280
C       -7.01390458      12.52659256       4.97182759
O       -4.21635128       5.59829902       3.99605624
H       -0.97442258       3.64274570       1.03390041
H       -2.39627681       5.06128988       2.44163371
H       -4.22129768       1.53425107       4.14208943
H       -2.79431707       0.12493129       2.72950946
H       -5.46529911       3.05866662       5.65860326
H       -6.45409220       5.49373041       6.39328513
H       -4.58656026       8.12495303       3.95464744
H       -6.38374142      10.19860958       6.13306937
H       -5.21044789      11.79093690       2.17298181
H       -5.28853089      14.24149094       1.93534144
H       -6.44878322      15.62242071       3.64157538
H       -7.56431910      14.54366746       5.55441884
C       -7.75445658      11.99553455       6.08679850
C       -8.37466888      11.55077347       7.02058663
Br      -9.37749972      10.83163241       8.53044306
C        1.79136462      -1.79136462       1.79136462
C        2.49655282      -1.22630123       2.84877766
C        3.29833634      -2.03787075       3.65753370
C        3.40584770      -3.41873082       3.42083061
C        2.68858182      -3.96507532       2.34595289
C        1.88354119      -3.15692932       1.53465997
C        4.23450952      -4.26731086       4.27438294
C        4.61758838      -5.59478500       4.25316977
C        5.42631938      -5.80634581       5.39860896
C        5.48844473      -4.59921553       6.06217256
C        6.12638263      -4.18298420       7.27718720
N        6.88171019      -4.99322626       7.95167484
N        7.39607080      -4.52250781       9.13762513
C        6.67069747      -3.77223883      10.05779424
O        5.53159390      -3.34750636       9.87328944
C        7.37350421      -3.40644148      11.32336091
C        7.03860714      -2.14554419      11.85397720
C        7.64928523      -1.66307528      13.01252914
C        8.60368901      -2.43638251      13.66246152
C        8.93278800      -3.69718775      13.16396898
C        8.31736480      -4.19155323      12.00340671
O        4.77289028      -3.66290214       5.37491412
H        2.43103054      -0.16194910       3.05808906
H        3.84000954      -1.57738973       4.48180112
H        2.73925125      -5.02926866       2.12911826
H        1.33294815      -3.60431078       0.71149890
H        4.34612589      -6.32856016       3.50788293
H        5.89879633      -6.72569507       5.71661634
H        5.95807414      -3.13363495       7.57445165
H        8.20171895      -5.04479583       9.46890559
H        6.29374817      -1.52449908      11.35611935
H        7.37649709      -0.68544791      13.40341828
H        9.08353940      -2.06436368      14.56487623
H        9.66800664      -4.29511423      13.69928453
C        8.68111231      -5.53208597      11.62359135
C        8.98575086      -6.65478214      11.30549598
Br       9.47832562      -8.47008690      10.79116268
C       -0.00445707       0.01189536      -1.78238275
H       -0.66409135       0.67374010      -2.43557963
H        0.65740317      -0.63156657      -2.45157240
C       -0.90989263      -0.90692880      -0.91072765
C        0.90977584       0.90977584      -0.90977584
C       -0.00465871       1.77757030       0.00794375
H       -0.66225468       2.44313916      -0.64384735
H        0.64322798       2.43503045       0.67728295
C       -1.78241447       0.00034974      -0.00472694
H       -2.45427497      -0.65498947       0.64260836
H       -2.43311707       0.67328779      -0.65473579
C       -0.91132561       0.90220522       0.91563759
C       -0.01476271      -0.02253852       1.78660255
H       -0.67934791      -0.69751639       2.42135241
H        0.63392994       0.61504881       2.47327442
C        0.01484550      -1.77751727      -0.01636693
H        0.67870853      -2.42144646      -0.68295456
H       -0.62264859      -2.45592969       0.64226336
C        1.78714474       0.01002794       0.00389507
H        2.44202412       0.67113390       0.66197326
H        2.45385902      -0.65136977      -0.64189061
C        0.91606151      -0.90478549       0.90901405
