137
Properties=species:S:1:pos:R:3 pbc="F F F"
C        0.00000000       0.00000000       0.00000000
C        0.88220335       0.88220335      -0.88220335
C        2.10820713       1.33055439      -0.40211092
C        2.91240667       2.13029740      -1.21953956
C        4.24433072       2.56067542      -0.74382804
N        4.71000547       2.20330040       0.41375701
N        5.98656525       2.61027296       0.65577978
C        6.69141107       2.31526228       1.80668960
O        7.86918995       2.64637451       1.91753591
C        6.01755530       1.57559297       2.90028083
C        5.44820553       0.32181768       2.62480730
C        4.85137230      -0.42276748       3.64365688
C        4.83612181       0.06980744       4.94657741
C        5.41171337       1.30922031       5.23151991
C        6.00293504       2.06613923       4.21230361
C        2.48043315       2.48625499      -2.50760630
O        3.29269174       3.28565562      -3.26746100
C        1.25118051       2.02077508      -3.00206741
C        0.76295905       2.34450557      -4.38584597
C        0.45436494       1.21824902      -2.16839031
H        2.44163177       1.05529599       0.59548468
H        4.84480957       3.18314911      -1.43109718
H        6.50384636       3.11916196      -0.05362106
H        5.46950564      -0.07702023       1.61315026
H        4.40391895      -1.38814882       3.42045846
H        4.37649796      -0.51045051       5.74304019
H        5.39293983       1.67987036       6.25383390
H        2.83421734       3.55256117      -4.08037255
H       -0.15386601       1.79740825      -4.62975919
H        1.51517801       2.06187621      -5.12986536
H        0.54902882       3.41445140      -4.47055782
H       -0.50395716       0.84652329      -2.52730359
C        6.53793956       3.35129022       4.58075591
C        6.98600584       4.42760418       4.88933471
Br       7.71049112       6.16791281       5.38828054
C       -0.88220335      -0.88220335      -0.88220335
C       -2.01744812      -0.34423069      -1.47919363
C       -2.81395104      -1.15675093      -2.29154166
C       -3.98754302      -0.58006544      -2.98122571
N       -4.30025301       0.67507064      -2.87436649
N       -5.35391578       1.05924271      -3.64638536
C       -5.83668663       2.35177760      -3.71507472
O       -6.73819740       2.63880985      -4.49864101
C       -5.24104046       3.39549180      -2.84731878
C       -3.85988886       3.63773300      -2.92306006
C       -3.27633856       4.64811158      -2.15672096
C       -4.06956126       5.43544018      -1.32523074
C       -5.44535006       5.21006860      -1.25413232
C       -6.03579936       4.19134487      -2.01231617
C       -2.47662054      -2.50517487      -2.49249903
O       -3.29492572      -3.26888569      -3.28199695
C       -1.32151254      -3.04692063      -1.90558981
C       -0.89977467      -4.47309813      -2.12043779
C       -0.53162093      -2.21765919      -1.09172414
H       -2.27847008       0.69953866      -1.32251166
H       -4.57856819      -1.26130564      -3.61918204
H       -5.80454516       0.39234805      -4.26443227
H       -3.23570199       3.03772583      -3.58135899
H       -2.20478950       4.82292107      -2.21344324
H       -3.61837363       6.22652288      -0.73115650
H       -6.05157158       5.83380114      -0.60120584
H       -3.02093817      -4.19945102      -3.24676187
H        0.08294987      -4.67498491      -1.68126638
H       -0.82556826      -4.69007684      -3.19127448
H       -1.62115825      -5.15429267      -1.65858712
H        0.36769140      -2.61420509      -0.62335602
C       -7.45354254       3.99684352      -1.85177485
C       -8.64090244       3.83394863      -1.71732150
Br     -10.56076299       3.57056139      -1.49992179
C       -0.88220335       0.88220335       0.88220335
C       -2.18299366       0.48480052       1.17307826
C       -2.97997874       1.29425232       1.98801257
C       -4.34203761       0.85186011       2.35493645
N       -4.82625770      -0.28521984       1.95851100
N       -6.05714422      -0.57774237       2.46165658
C       -6.74591217      -1.74642910       2.20050068
O       -7.81612389      -1.97620973       2.75811439
C       -6.16985997      -2.73188138       1.25488886
C       -4.88682613      -3.24551044       1.50390022
C       -4.33671357      -4.21270214       0.66093651
C       -5.07053636      -4.68739111      -0.42379343
C       -6.35199551      -4.19187351      -0.67070822
C       -6.90586405      -3.21395763       0.16486425
C       -2.47508918       2.50169760       2.49750767
O       -3.29662217       3.27180678       3.27737941
C       -1.15641561       2.89728823       2.22031915
C       -0.55999227       4.16143069       2.77188763
C       -0.36823308       2.07315648       1.39961470
H       -2.57350248      -0.44967854       0.77761914
H       -4.92759910       1.52263549       3.00882127
H       -6.50529080       0.05521814       3.11612044
H       -4.31330270      -2.89153487       2.35756732
H       -3.33877791      -4.59815822       0.85469199
H       -4.64649284      -5.44451361      -1.07897197
H       -6.91299291      -4.57314930      -1.52086733
H       -2.87470660       4.12514050       3.46730396
H        0.50852860       4.23761764       2.54421238
H       -0.66020916       4.18454772       3.86216271
H       -1.05912925       5.03456308       2.34034571
H        0.65656741       2.35856626       1.16787087
C       -8.21561178      -2.72579577      -0.18134215
C       -9.31252551      -2.31696021      -0.47129000
Br     -11.08614224      -1.65590769      -0.94011116
C        0.88220335      -0.88220335       0.88220335
C        0.62151167      -0.97399695       2.24536381
C        1.42878547      -1.79024302       3.04321513
C        1.12296698      -1.94452070       4.48134649
N        0.10709552      -1.35684094       5.03561241
N       -0.08265419      -1.67886235       6.34485028
C       -1.11905366      -1.19775605       7.12128136
O       -1.27321889      -1.59926769       8.27197975
C       -2.05749231      -0.20594173       6.54441803
C       -2.75283496      -0.52988084       5.36817003
C       -3.68145467       0.36134068       4.82774330
C       -3.93625215       1.57211486       5.46771883
C       -3.25919517       1.89608797       6.64469692
C       -2.31870772       1.01122349       7.18670187
C        2.49882043      -2.50053329       2.47494073
O        3.27430447      -3.27453402       3.29696988
C        2.75395240      -2.42399726       1.09607333
C        3.86368451      -3.19309221       0.43653386
C        1.93395681      -1.59923680       0.30781065
H       -0.20652390      -0.42317938       2.68478759
H        1.78491522      -2.60814446       5.06599618
H        0.52468132      -2.35362202       6.79832604
H       -2.57113155      -1.47983566       4.87063104
H       -4.20845448       0.10754319       3.91130934
H       -4.66287604       2.26587092       5.05175422
H       -3.46977617       2.84461954       7.13337199
H        4.04131181      -3.61604042       2.80979883
H        3.82987286      -3.09733732      -0.65390876
H        3.77753440      -4.25960641       0.66977877
H        4.83524549      -2.82178205       0.77701050
H        2.11234294      -1.52089338      -0.76336660
C       -1.63427840       1.43715491       8.37990718
C       -1.06106884       1.79387249       9.37921664
Br      -0.13423748       2.37065463      10.99501550
