150
Properties=species:S:1:pos:R:3 pbc="F F F"
C        1.79210737       1.79210737      -1.79210737
C        3.01811115       2.24045842      -1.31201494
C        3.82231069       3.04020142      -2.12944359
C        5.15423474       3.47057944      -1.65373206
N        5.61990950       3.11320442      -0.49614702
N        6.89646927       3.52017698      -0.25412425
C        7.60131509       3.22516631       0.89678558
O        8.77909398       3.55627853       1.00763189
C        6.92745933       2.48549699       1.99037680
C        6.35810956       1.23172170       1.71490327
C        5.76127632       0.48713655       2.73375285
C        5.74602583       0.97971146       4.03667339
C        6.32161740       2.21912434       4.32161588
C        6.91283907       2.97604326       3.30239958
Br       7.61888477       4.67205761       3.78864626
C        3.39033718       3.39615901      -3.41751033
O        4.20259576       4.19555965      -4.17736502
C        2.16108453       2.93067910      -3.91197143
C        1.67286307       3.25440959      -5.29574999
C        1.36426896       2.12815304      -3.07829433
H        3.35153579       1.96520002      -0.31441934
H        5.75471360       4.09305314      -2.34100121
H        7.41375038       4.02906599      -0.96352508
H        6.37940966       0.83288380       0.70324623
H        5.31382298      -0.47824479       2.51055444
H        5.28640199       0.39945351       4.83313616
H        6.30284385       2.58977438       5.34392988
H        3.74412137       4.46246519      -4.99027657
H        0.75603801       2.70731227      -5.53966321
H        2.42508204       2.97178024      -6.03976938
H        1.45893285       4.32435542      -5.38046185
H        0.40594686       1.75642731      -3.43720762
C       -1.79210737      -1.79210737      -1.79210737
C       -2.94631088      -1.26368236      -2.36059128
C       -3.74281547      -2.07593113      -3.17320911
C       -4.93759490      -1.50790027      -3.83305108
N       -5.26952209      -0.26028263      -3.69945621
N       -6.34257515       0.11873133      -4.44692668
C       -6.84815105       1.40378032      -4.48532509
O       -7.76765787       1.68848329      -5.24856604
C       -6.25538970       2.44278259      -3.60997241
C       -4.88001369       2.70988817      -3.70480246
C       -4.30052055       3.71706520      -2.93120467
C       -5.09253068       4.47657571      -2.07310894
C       -6.46290906       4.22650495      -1.98272174
C       -7.04901898       3.21072964      -2.74819340
Br      -8.91152334       2.91850253      -2.50927531
C       -3.38631568      -3.41480324      -3.40288760
O       -4.20504682      -4.17901496      -4.19145865
C       -2.21236382      -3.94649024      -2.84488100
C       -1.77040949      -5.36141367      -3.09119951
C       -1.42272457      -3.11764391      -2.03034786
H       -3.22215185      -0.22732413      -2.18167917
H       -5.52790466      -2.18832406      -4.47253922
H       -6.79243019      -0.54528143      -5.06862984
H       -4.25717860       2.13183275      -4.38370138
H       -3.23319633       3.91113482      -3.00296224
H       -4.64461966       5.26515395      -1.47325363
H       -7.06827558       4.82867710      -1.30908987
H       -3.91486300      -5.10521184      -4.17678830
H       -0.77704565      -5.55380457      -2.67216327
H       -1.71091343      -5.55902454      -4.16669369
H       -2.47220146      -6.06254680      -2.62900185
H       -0.50897047      -3.50655828      -1.58405304
C       -1.79210737       1.79210737       1.79210737
C       -2.08084199       1.39597942       3.09376310
C       -2.88191430       2.21368822       3.89635319
C       -3.14385438       1.83383031       5.30086155
N       -2.63533943       0.76351724       5.83040427
N       -2.90178885       0.61198437       7.15699729
C       -2.43450568      -0.43392126       7.92911140
O       -2.64732438      -0.45832242       9.13873866
C       -1.65447071      -1.51800051       7.28610932
C       -0.48907945      -1.18913110       6.57497964
C        0.29537786      -2.19117253       6.00121041
C       -0.06716116      -3.52793703       6.14983977
C       -1.21683764      -3.86430844       6.86659665
C       -2.01405502      -2.86354609       7.43597381
Br      -3.58512360      -3.42728512       8.34445764
C       -3.39875859       3.41675590       3.38849202
O       -4.19316014       4.17821031       4.20414999
C       -3.09473479       3.82833115       2.08066912
C       -3.59396415       5.12364975       1.50540875
C       -2.28866318       2.99548325       1.28656991
H       -1.68107538       0.46406614       3.48601362
H       -3.77460136       2.51838791       5.89577867
H       -3.42949042       1.32045169       7.65639934
H       -0.19051149      -0.14881895       6.46735469
H        1.19081861      -1.92784154       5.44368390
H        0.54489774      -4.31074403       5.70836111
H       -1.48620020      -4.91243487       6.97492302
H       -4.57773750       4.91559777       3.70352786
H       -3.15685383       5.32458812       0.52157154
H       -3.31957751       5.95963675       2.15741740
H       -4.68182085       5.09174211       1.39018715
H       -2.04029409       3.29079598       0.26849172
C        1.79210737      -1.79210737       1.79210737
C        2.27517229      -2.99868790       1.29672432
C        3.08856234      -3.79525159       2.10814177
C        3.65871478      -5.04896849       1.57086297
N        3.44471960      -5.43441878       0.35012256
N        4.11801818      -6.56196274      -0.00921042
C        4.06511811      -7.13134185      -1.26676414
O        4.76655853      -8.10191320      -1.54073111
C        3.16743551      -6.54589832      -2.29075432
C        3.31576959      -5.19203463      -2.63287623
C        2.52057535      -4.62351839      -3.62943372
C        1.58653902      -5.40649121      -4.30396633
C        1.44200207      -6.75643600      -3.97931222
C        2.22921001      -7.33071023      -2.97343751
Br       1.91453019      -9.16178771      -2.57402177
C        3.40431685      -3.38577267       3.41391699
O        4.19014865      -4.20562334       4.17974844
C        2.93284087      -2.15987497       3.91101922
C        3.27331761      -1.66228358       5.28742146
C        2.11634596      -1.37087530       3.08349507
H        2.02964098      -3.31547952       0.28603464
H        4.30273229      -5.63739306       2.24864259
H        4.75034567      -7.01017705       0.64581873
H        4.05338479      -4.57746188      -2.12179944
H        2.63454029      -3.57214483      -3.88166138
H        0.96947449      -4.96746153      -5.08421669
H        0.70925272      -7.35504096      -4.51560533
H        4.23760422      -3.86993649       5.08932242
H        2.91406561      -0.64035455       5.44859334
H        4.35920531      -1.64878433       5.42864202
H        2.81404582      -2.30398740       6.04571689
H        1.73614577      -0.41729487       3.44614115
C       -0.00445707       0.01189536      -1.78238275
H       -0.66409135       0.67374010      -2.43557963
H        0.65740317      -0.63156657      -2.45157240
C       -0.90989263      -0.90692880      -0.91072765
C        0.90977584       0.90977584      -0.90977584
C       -0.00465871       1.77757030       0.00794375
H       -0.66225468       2.44313916      -0.64384735
H        0.64322798       2.43503045       0.67728295
C       -1.78241447       0.00034974      -0.00472694
H       -2.45427497      -0.65498947       0.64260836
H       -2.43311707       0.67328779      -0.65473579
C       -0.91132561       0.90220522       0.91563759
C       -0.01476271      -0.02253852       1.78660255
H       -0.67934791      -0.69751639       2.42135241
H        0.63392994       0.61504881       2.47327442
C        0.01484550      -1.77751727      -0.01636693
H        0.67870853      -2.42144646      -0.68295456
H       -0.62264859      -2.45592969       0.64226336
C        1.78714474       0.01002794       0.00389507
H        2.44202412       0.67113390       0.66197326
H        2.45385902      -0.65136977      -0.64189061
C        0.91606151      -0.90478549       0.90901405
