129
Properties=species:S:1:pos:R:3 pbc="F F F"
C        0.00000000       0.00000000       0.00000000
C        0.88220335       0.88220335      -0.88220335
C        2.10820713       1.33055439      -0.40211092
C        2.91240667       2.13029740      -1.21953956
C        4.24433072       2.56067542      -0.74382804
N        4.71000547       2.20330040       0.41375701
N        5.98656525       2.61027296       0.65577978
C        6.69141107       2.31526228       1.80668960
O        7.86918995       2.64637451       1.91753591
C        6.01755530       1.57559297       2.90028083
C        5.44820553       0.32181768       2.62480730
C        4.85137230      -0.42276748       3.64365688
C        4.83612181       0.06980744       4.94657741
C        5.41171337       1.30922031       5.23151991
C        6.00293504       2.06613923       4.21230361
Br       6.70898075       3.76215358       4.69855028
C        2.48043315       2.48625499      -2.50760630
O        3.29269174       3.28565562      -3.26746100
C        1.25118051       2.02077508      -3.00206741
C        0.76295905       2.34450557      -4.38584597
C        0.45436494       1.21824902      -2.16839031
H        2.44163177       1.05529599       0.59548468
H        4.84480957       3.18314911      -1.43109718
H        6.50384636       3.11916196      -0.05362106
H        5.46950564      -0.07702023       1.61315026
H        4.40391895      -1.38814882       3.42045846
H        4.37649796      -0.51045051       5.74304019
H        5.39293983       1.67987036       6.25383390
H        2.83421734       3.55256117      -4.08037255
H       -0.15386601       1.79740825      -4.62975919
H        1.51517801       2.06187621      -5.12986536
H        0.54902882       3.41445140      -4.47055782
H       -0.50395716       0.84652329      -2.52730359
C       -0.88220335      -0.88220335      -0.88220335
C       -0.41943037      -1.29385732      -2.12758476
C       -1.23013274      -2.10785218      -2.92425870
C       -0.72398396      -2.60272177      -4.22212844
N        0.46939493      -2.32118805      -4.64775575
N        0.80752147      -2.93178875      -5.81679115
C        2.03639192      -2.80196386      -6.43441181
O        2.29715758      -3.45073062      -7.44445550
C        3.04682739      -1.88610112      -5.85359371
C        3.45223799      -2.07500775      -4.52244615
C        4.43876298      -1.26193210      -3.96177883
C        5.04042930      -0.26866421      -4.73111692
C        4.65277875      -0.08296262      -6.05922991
C        3.65637993      -0.88822804      -6.62492256
Br       3.16658556      -0.51617133      -8.42299828
C       -2.50320427      -2.49558218      -2.47550800
O       -3.27052344      -3.27916681      -3.29611811
C       -2.96639393      -2.09636132      -1.21126774
C       -4.30519371      -2.51539449      -0.67272239
C       -2.14006322      -1.27826948      -0.42267156
H        0.56590622      -0.99262407      -2.47472522
H       -1.39933046      -3.25045759      -4.80926781
H        0.16039421      -3.57262526      -6.26439834
H        2.99850640      -2.85832246      -3.91951909
H        4.74011222      -1.40798129      -2.92744260
H        5.81279124       0.36265947      -4.29845796
H        5.13256362       0.69591768      -6.64745757
H       -4.16222598      -3.37912716      -2.92579792
H       -4.43715583      -2.20550319       0.36935761
H       -4.40112235      -3.60596325      -0.69983398
H       -5.10837082      -2.06303014      -1.26263708
H       -2.47692313      -0.95327124       0.56032465
C       -0.88220335       0.88220335       0.88220335
C       -2.12063237       1.30728381       0.41295626
C       -2.92459164       2.10720921       1.23044278
C       -4.26861526       2.51294611       0.76727280
N       -4.74497073       2.13344583      -0.37886770
N       -6.03015534       2.51973840      -0.60883532
C       -6.74640296       2.19944446      -1.74586368
O       -7.93000797       2.51302847      -1.84500789
C       -6.07732655       1.45402677      -2.83848588
C       -5.48714580       0.21197335      -2.55390324
C       -4.89399825      -0.53837626      -3.57067404
C       -4.90315050      -0.06356818      -4.88023049
C       -5.49950296       1.16391104      -5.17400022
C       -6.08720430       1.92667312      -4.15710676
Br      -6.82297859       3.60614003      -4.65653457
C       -2.48014517       2.48662684       2.50752243
O       -3.29293676       3.28531065       3.26756095
C       -1.23803828       2.04466187       2.99132284
C       -0.73561622       2.39393349       4.36376087
C       -0.44164338       1.24163097       2.15772990
H       -2.46372327       1.01387112      -0.57615131
H       -4.86822097       3.13660686       1.45422804
H       -6.54472026       3.03126569       0.10064343
H       -5.48927180      -0.17319445      -1.53674220
H       -4.43035703      -1.49445707      -3.34058828
H       -4.44643133      -0.64842661      -5.67499745
H       -5.49966047       1.52071575      -6.20139994
H       -2.82720505       3.56953037       4.07041564
H        0.19184925       1.86269787       4.60245280
H       -1.47374355       2.11138393       5.12179211
H       -0.53526321       3.46773940       4.43103543
H        0.52646148       0.88787446       2.50845674
C        0.88220335      -0.88220335       0.88220335
C        0.34094945      -1.48954981       2.01037318
C        1.15356756      -2.30179829       2.80687778
C        0.57394158      -3.00231243       3.97258016
N       -0.68374210      -2.90515395       4.27813702
N       -1.06960950      -3.68606518       5.32460276
C       -2.36464992      -3.76573655       5.79889712
O       -2.65236962      -4.55664903       6.69374914
C       -3.41003820      -2.90075879       5.20214685
C       -3.64326793      -2.96940905       3.81907479
C       -4.65476622      -2.20571350       3.23400067
C       -5.45213241      -1.38404877       4.02743547
C       -5.23570968      -1.32011206       5.40501140
C       -4.21595985      -2.07564401       5.99708651
Br      -3.97216022      -1.87382918       7.87091509
C        2.50527246      -2.49232204       2.47669994
O        3.26880633      -3.28215830       3.29484373
C        3.05048467      -1.89490949       1.32862882
C        4.48054787      -2.09831840       0.91444431
C        2.22107573      -1.08128793       0.53864060
H       -0.70536601      -1.34094361       2.26586548
H        1.25547002      -3.63970970       4.56387616
H       -0.40168257      -4.30276978       5.77554217
H       -3.03533656      -3.62009686       3.19457485
H       -4.82259746      -2.25685327       2.16105586
H       -6.24409016      -0.79207956       3.57501787
H       -5.86722114      -0.67483138       6.01136603
H        4.20080936      -3.23947350       3.02686820
H        4.68576759      -1.65180875      -0.06427491
H        4.70463233      -3.16731247       0.83497478
H        5.15438965      -1.63676141       1.64288698
H        2.62025038      -0.60489871      -0.35527938
