158
Properties=species:S:1:pos:R:3 pbc="F F F"
C        1.79210737       1.79210737      -1.79210737
C        3.01811115       2.24045842      -1.31201494
C        3.82231069       3.04020142      -2.12944359
C        5.15423474       3.47057944      -1.65373206
N        5.61990950       3.11320442      -0.49614702
N        6.89646927       3.52017698      -0.25412425
C        7.60131509       3.22516631       0.89678558
O        8.77909398       3.55627853       1.00763189
C        6.92745933       2.48549699       1.99037680
C        6.35810956       1.23172170       1.71490327
C        5.76127632       0.48713655       2.73375285
C        5.74602583       0.97971146       4.03667339
C        6.32161740       2.21912434       4.32161588
C        6.91283907       2.97604326       3.30239958
C        3.39033718       3.39615901      -3.41751033
O        4.20259576       4.19555965      -4.17736502
C        2.16108453       2.93067910      -3.91197143
C        1.67286307       3.25440959      -5.29574999
C        1.36426896       2.12815304      -3.07829433
H        3.35153579       1.96520002      -0.31441934
H        5.75471360       4.09305314      -2.34100121
H        7.41375038       4.02906599      -0.96352508
H        6.37940966       0.83288380       0.70324623
H        5.31382298      -0.47824479       2.51055444
H        5.28640199       0.39945351       4.83313616
H        6.30284385       2.58977438       5.34392988
H        3.74412137       4.46246519      -4.99027657
H        0.75603801       2.70731227      -5.53966321
H        2.42508204       2.97178024      -6.03976938
H        1.45893285       4.32435542      -5.38046185
H        0.40594686       1.75642731      -3.43720762
C        7.44784358       4.26119425       3.67085189
C        7.89590986       5.33750820       3.97943069
Br       8.62039515       7.07781684       4.47837651
C       -1.79210737      -1.79210737      -1.79210737
C       -1.20484717      -2.72033022      -2.64540712
C       -2.02027345      -3.52903935      -3.44264290
C       -1.41004626      -4.56174650      -4.30675348
N       -0.12802918      -4.76154855      -4.33968321
N        0.25731590      -5.81028433      -5.11780207
C        1.56640038      -6.22354213      -5.27255407
O        1.82825184      -7.23081951      -5.92517295
C        2.65244674      -5.45008869      -4.62493756
C        2.61287584      -5.25262927      -3.23517456
C        3.64618191      -4.57277686      -2.58806507
C        4.73419391      -4.10304247      -3.32021534
C        4.78785285      -4.30682258      -4.70015612
C        3.74969212      -4.97891286      -5.35726200
C       -3.41744369      -3.39645740      -3.39010543
O       -4.17698637      -4.19725518      -4.20127889
C       -4.01425927      -2.47265850      -2.51681729
C       -5.50446220      -2.31984596      -2.39871449
C       -3.18126349      -1.66708163      -1.72237121
H       -0.12310554      -2.82185769      -2.68619191
H       -2.09802123      -5.18105967      -4.90968703
H       -0.43822484      -6.38123552      -5.58688109
H        1.77449495      -5.62968078      -2.65386140
H        3.60339041      -4.41521477      -1.51319938
H        5.54292585      -3.57772293      -2.81792225
H        5.64439394      -3.93518099      -5.25790130
H       -5.10917274      -3.93007645      -4.15761395
H       -5.77823282      -1.63905428      -1.58572639
H       -5.96936984      -3.28701263      -2.18024918
H       -5.91804534      -1.91718440      -3.32852037
H       -3.61918697      -0.94156706      -1.03882776
C        3.86094662      -5.11239323      -6.78673932
C        3.95412225      -5.22418304      -7.98392659
Br       4.10477938      -5.40493771      -9.91967713
C       -1.79210737       1.79210737       1.79210737
C       -2.82126927       2.53108331       1.21823193
C       -3.62863731       3.32888902       2.03442937
C       -4.76415816       4.06952902       1.44485906
N       -5.05557034       3.99117567       0.18251492
N       -6.18470431       4.66218079      -0.17611460
C       -6.69955568       4.68793227      -1.45779213
O       -7.76926513       5.24637456      -1.68789908
C       -5.95761856       4.01597814      -2.55101718
C       -5.65322492       2.65054252      -2.42883946
C       -5.00071590       1.97650060      -3.46255648
C       -4.66546093       2.65541104      -4.63180807
C       -4.97638891       4.00956587      -4.76682893
C       -5.62159260       4.69446421      -3.72957408
C       -3.39450021       3.39172814       3.41777817
O       -4.19898564       4.19972296       4.17681183
C       -2.36755322       2.63328298       4.00289887
C       -2.10178578       2.63937375       5.48186313
C       -1.56474782       1.83670164       3.16926687
H       -3.00143875       2.48261760       0.14709880
H       -5.37740116       4.67774810       2.13361868
H       -6.73917898       5.14123692       0.52592555
H       -5.92527290       2.10928409      -1.52550976
H       -4.75961775       0.92171343      -3.35630743
H       -4.16182197       2.13153981      -5.44064244
H       -4.70921527       4.52562719      -5.68615411
H       -3.86435466       4.24565552       5.08685295
H       -1.34383523       1.89935563       5.75982263
H       -3.01453065       2.38923450       6.03286651
H       -1.74257354       3.62383671       5.79733986
H       -0.76056526       1.24100795       3.59800857
C       -5.87039897       6.09847571      -3.93068874
C       -6.07877430       7.27433534      -4.09912226
Br      -6.41569959       9.17560091      -4.37146503
C        1.79210737      -1.79210737       1.79210737
C        1.23258857      -2.46447766       2.87351829
C        2.04581175      -3.27608200       3.67006195
C        1.45026386      -4.04445417       4.78382821
N        0.17887714      -4.00805269       5.04233111
N       -0.21540723      -4.84447362       6.04170412
C       -1.52350921      -4.99281774       6.46038728
O       -1.81356460      -5.82938273       7.31192249
C       -2.57893780      -4.14551209       5.85600522
C       -2.75585595      -4.16769126       4.46309268
C       -3.77384363      -3.42067515       3.86782850
C       -4.63337844      -2.66269658       4.65974577
C       -4.47284135      -2.64565034       6.04631687
C       -3.44721082      -3.38447812       6.64921543
C        3.41575749      -3.40110283       3.38714620
O        4.17824294      -4.19308351       4.20419398
C        3.98039155      -2.73770261       2.28564090
C        5.43232198      -2.86921323       1.92148745
C        3.15009780      -1.92563395       1.49498458
H        0.17211171      -2.36657355       3.09246988
H        2.13349773      -4.67830922       5.37696098
H        0.45881755      -5.45257541       6.49494850
H       -2.09880356      -4.76900300       3.83884779
H       -3.89809498      -3.43526334       2.78785538
H       -5.43039630      -2.08400424       4.19911140
H       -5.15252312      -2.04991850       6.65129297
H        5.11741015      -4.10388951       3.97556347
H        5.65701057      -2.37633828       0.96966465
H        5.70188907      -3.92475950       1.80998309
H        6.05863548      -2.41159110       2.69352353
H        3.56398470      -1.39885712       0.63673997
C       -3.32349721      -3.28149288       8.08019027
C       -3.21988706      -3.19524274       9.27863169
Br      -3.05235822      -3.05578356      11.21641012
C       -0.00445707       0.01189536      -1.78238275
H       -0.66409135       0.67374010      -2.43557963
H        0.65740317      -0.63156657      -2.45157240
C       -0.90989263      -0.90692880      -0.91072765
C        0.90977584       0.90977584      -0.90977584
C       -0.00465871       1.77757030       0.00794375
H       -0.66225468       2.44313916      -0.64384735
H        0.64322798       2.43503045       0.67728295
C       -1.78241447       0.00034974      -0.00472694
H       -2.45427497      -0.65498947       0.64260836
H       -2.43311707       0.67328779      -0.65473579
C       -0.91132561       0.90220522       0.91563759
C       -0.01476271      -0.02253852       1.78660255
H       -0.67934791      -0.69751639       2.42135241
H        0.63392994       0.61504881       2.47327442
C        0.01484550      -1.77751727      -0.01636693
H        0.67870853      -2.42144646      -0.68295456
H       -0.62264859      -2.45592969       0.64226336
C        1.78714474       0.01002794       0.00389507
H        2.44202412       0.67113390       0.66197326
H        2.45385902      -0.65136977      -0.64189061
C        0.91606151      -0.90478549       0.90901405
