117
Properties=species:S:1:pos:R:3 pbc="F F F"
C        0.00000000       0.00000000       0.00000000
C        0.88325021       0.88325021      -0.88325021
C        0.44687570       2.16018130      -1.24015345
C        1.23823731       2.98631342      -2.05372695
C        0.70046739       4.32652957      -2.38869793
H       -0.23457198       4.59931858      -1.90822104
N        1.37060289       5.09787347      -3.25645662
N        0.70917832       6.32893664      -3.48553237
C        1.22967376       7.23754722      -4.39353112
O        2.25634885       7.12314022      -5.05280470
C        0.44474247       8.49062655      -4.50405942
C        0.19324007       9.20777641      -3.32261048
C       -0.49144127      10.42289999      -3.36329673
C       -0.92607665      10.93166315      -4.58566472
C       -0.68100067      10.22261464      -5.76438266
C        0.00595811       9.00095888      -5.72988778
Br       0.23646098       8.09714841      -7.38457874
C        2.48472182       2.48970802      -2.49345463
O        3.30139249       3.25614313      -3.29053364
C        2.91485632       1.20830500      -2.12776002
Cl       4.43665009       0.57368833      -2.65082622
C        2.11266880       0.40139141      -1.32183399
H       -0.51728589       2.52003549      -0.89111639
H       -0.17570972       6.48586254      -3.02387434
H        0.55663596       8.81838565      -2.37236638
H       -0.67365790      10.97249587      -2.44412270
H       -1.45455447      11.88019471      -4.62359225
H       -1.02860475      10.62947365      -6.71064447
H        2.78445469       4.08893828      -3.45503351
H        2.44887802      -0.59205292      -1.04354674
C       -0.88325021      -0.88325021      -0.88325021
C       -1.06360439      -2.22803746      -0.55556859
C       -1.86558736      -3.05862438      -1.35406594
C       -2.00282883      -4.47483735      -0.93802871
H       -1.53501045      -4.74276110       0.00480390
N       -2.66266363      -5.32609625      -1.73617309
N       -2.67804691      -6.63929157      -1.20630886
C       -3.27383723      -7.66789864      -1.91901623
O       -3.83987962      -7.58932480      -3.00308934
C       -3.23744499      -8.97744649      -1.22453696
C       -3.76190023      -9.03893655       0.07720982
C       -3.80889722     -10.25163461       0.76577638
C       -3.33562452     -11.41211283       0.15648613
C       -2.81091189     -11.35777340      -1.13731134
C       -2.76054363     -10.14221854      -1.83404260
Br      -1.97848048     -10.17496813      -3.56473951
C       -2.48452537      -2.49313996      -2.49021914
O       -3.28197609      -3.25943220      -3.30666096
C       -2.29961222      -1.14225405      -2.80905507
Cl      -3.04526462      -0.42208696      -4.19381306
C       -1.49620403      -0.33437274      -2.00531743
H       -0.57539268      -2.64138307       0.32290976
H       -2.18650640      -6.80770272      -0.33981804
H       -4.15347072      -8.13382286       0.53990559
H       -4.22357211     -10.28856914       1.76918059
H       -3.37522794     -12.36000026       0.68599573
H       -2.44210669     -12.27007498      -1.59933171
H       -3.23338117      -4.17412977      -2.92091552
H       -1.35343017       0.71115581      -2.25809748
C       -0.88325021       0.88325021       0.88325021
C       -2.09130845       0.38353480       1.37236720
C       -2.92028607       1.17751335       2.18047826
C       -4.18724072       0.57236639       2.65608778
H       -4.33881628      -0.47415045       2.40830181
N       -5.05916892       1.33500713       3.33075693
N       -6.22405460       0.61272052       3.68687222
C       -7.26131038       1.25152824       4.34791348
O       -7.30448466       2.42312750       4.70468161
C       -8.39903368       0.36050644       4.67988833
C       -8.12039153      -0.80680485       5.41004029
C       -9.15206393      -1.66020237       5.80289389
C      -10.46991240      -1.35073907       5.47207789
C      -10.75396785      -0.19232633       4.74435511
C       -9.72166571       0.66877697       4.34636210
Br     -10.21663077       2.18570416       3.31585320
C       -2.49396694       2.48863866       2.48527887
O       -3.26496756       3.30950813       3.27359357
C       -1.27902639       2.97989730       1.99199766
Cl      -0.73089507       4.58122981       2.34903976
C       -0.47122664       2.17689478       1.18777277
H       -2.39939087      -0.62824020       1.12271531
H       -6.29804823      -0.34843858       3.38441752
H       -7.09133782      -1.03169348       5.68774365
H       -8.92547348      -2.55626118       6.37374836
H      -11.27753105      -2.00881152       5.78051295
H      -11.78615731       0.03517280       4.49018326
H       -4.08272325       2.77873886       3.46696436
H        0.46797134       2.56299323       0.80534994
C        0.88325021      -0.88325021       0.88325021
C        1.24494564      -0.44431241       2.15795239
C        2.05861635      -1.23563912       2.98402221
C        2.39884011      -0.69506854       4.32178624
H        1.92174240       0.24207104       4.59329629
N        3.26688071      -1.36547485       5.09257742
N        3.50124972      -0.70125885       6.32113876
C        4.41033242      -1.22175561       7.22866406
O        5.06641308      -2.25058860       7.11529209
C        4.52656151      -0.43364036       8.47922658
C        3.34783271      -0.17682820       9.19896606
C        3.39383400       0.51112749      10.41204893
C        4.61883117       0.94375692      10.91617696
C        5.79486963       0.69340140      10.20452840
C        5.75503500       0.00313271       8.98490248
Br       7.40653799      -0.23452679       8.07712335
C        2.49346853      -2.48473235       2.48968359
O        3.29040699      -3.30148845       3.25617381
C        2.12298670      -2.91741806       1.21051658
Cl       2.64002133      -4.44243724       0.57870607
C        1.31704746      -2.11523326       0.40361347
H        0.89961189       0.52182419       2.51607828
H        3.04250616       0.18535349       6.47687450
H        2.39549057      -0.53864744       8.81324998
H        2.47671530       0.69745193      10.96369730
H        4.66089088       1.47477349      11.86311509
H        6.74323432       1.03948889      10.60776795
H        3.45868169      -2.78268953       4.08705525
H        1.03504110      -2.45343500      -0.58810427
