138
Properties=species:S:1:pos:R:3 pbc="F F F"
C        1.79315424       1.79315424      -1.79315424
C        1.35677972       3.07008532      -2.15005748
C        2.14814133       3.89621744      -2.96363098
C        1.61037142       5.23643359      -3.29860196
H        0.67533204       5.50922261      -2.81812507
N        2.28050691       6.00777749      -4.16636064
N        1.61908234       7.23884066      -4.39543639
C        2.13957778       8.14745124      -5.30343515
O        3.16625287       8.03304425      -5.96270872
C        1.35464649       9.40053057      -5.41396345
C        1.10314409      10.11768044      -4.23251451
C        0.41846275      11.33280401      -4.27320076
C       -0.01617263      11.84156717      -5.49556874
C        0.22890336      11.13251866      -6.67428669
C        0.91586214       9.91086291      -6.63979181
Br       1.14636500       9.00705243      -8.29448276
C        3.39462584       3.39961205      -3.40335866
O        4.21129651       4.16604715      -4.20043766
C        3.82476035       2.11820902      -3.03766405
Cl       5.34655411       1.48359235      -3.56073025
C        3.02257282       1.31129543      -2.23173802
H        0.39261813       3.42993951      -1.80102041
H        0.73419430       7.39576656      -3.93377837
H        1.46653999       9.72828968      -3.28227040
H        0.23624612      11.88239989      -3.35402672
H       -0.54465045      12.79009873      -5.53349627
H       -0.11870072      11.53937768      -7.62054849
H        3.69435871       4.99884230      -4.36493753
H        3.35878204       0.31785110      -1.95345077
C       -1.79315424      -1.79315424      -1.79315424
C       -1.44240659      -3.12710551      -2.00741042
C       -2.23501685      -3.95492679      -2.81804612
C       -1.79084694      -5.35792356      -2.99663647
H       -0.92454707      -5.66180093      -2.41633172
N       -2.45397781      -6.14575570      -3.85491154
N       -1.88599427      -7.44104330      -3.92632183
C       -2.40926016      -8.38065439      -4.80054961
O       -3.36603037      -8.24227609      -5.55369938
C       -1.73003707      -9.69736931      -4.74173414
C       -1.63723710     -10.32679940      -3.48930254
C       -1.05984611     -11.59172561      -3.37289579
C       -0.57472918     -12.23807232      -4.50816178
C       -0.66207133     -11.61696330      -5.75667408
C       -1.24065994     -10.34590729      -5.87994962
Br      -1.25849880      -9.57398900      -7.61541240
C       -3.39436103      -3.40033705      -3.40289847
O       -4.20822758      -4.16541947      -4.20413428
C       -3.73922668      -2.06167940      -3.17972734
Cl      -5.15327129      -1.35527060      -3.88233481
C       -2.93692699      -1.25447361      -2.37420567
H       -0.54424873      -3.53120606      -1.54812327
H       -1.05790549      -7.62749499      -3.37833875
H       -2.04022922      -9.82836929      -2.60850156
H       -1.00027982     -12.07205711      -2.40033580
H       -0.12946728     -13.22553771      -4.42393957
H       -0.27659907     -12.13112909      -6.63349729
H       -3.75422568      -5.04805146      -4.25586140
H       -3.20659161      -0.21687711      -2.20661519
C       -1.79315424       1.79315424       1.79315424
C       -2.49796431       1.22392821       2.85503000
C       -3.31834209       2.01395362       3.67569405
C       -4.03452544       1.33127782       4.77960370
H       -3.80370076       0.27929494       4.91968402
N       -4.91651497       2.02710620       5.51102388
N       -5.52928476       1.22210849       6.50196614
C       -6.50738277       1.75873952       7.32434188
O       -6.92819920       2.90969818       7.32410847
C       -7.03377217       0.80506447       8.33030388
C       -6.10681056       0.17178499       9.17474349
C       -6.53974191      -0.69452823      10.17925384
C       -7.90252123      -0.93085358      10.34929564
C       -8.82982896      -0.30580135       9.51168110
C       -8.40096498       0.56525062       8.50030126
Br      -9.74359237       1.31739602       7.38691180
C       -3.40410183       3.39566841       3.39782630
O       -4.19082614       4.21705041       4.16990478
C       -2.69100070       3.95776759       2.33186512
Cl      -2.77619450       5.64670765       1.96797457
C       -1.88417999       3.15560163       1.52582465
H       -2.41769650       0.15756644       3.04831511
H       -5.28165876       0.24327996       6.53880052
H       -5.04416571       0.37884539       9.05408897
H       -5.81427360      -1.17282593      10.83122507
H       -8.24529757      -1.59999307      11.13364005
H       -9.88969350      -0.50177183       9.65330378
H       -4.62703648       3.60802214       4.82307992
H       -1.33584289       3.59516865       0.69907237
C        1.79315424      -1.79315424       1.79315424
C        2.81068682      -1.21349252       2.55274318
C        3.63666327      -2.00476814       3.36655835
C        4.69523431      -1.31142238       4.13875028
H        4.69767550      -0.22704759       4.07795663
N        5.57725244      -2.04269239       4.83470022
N        6.53370560      -1.22957804       5.49007577
C        7.55722180      -1.81354534       6.21969703
O        7.75007274      -3.00994435       6.40198875
C        8.46149272      -0.83593837       6.87170943
C        7.87997592       0.13292483       7.70628794
C        8.67854328       1.04770455       8.39362879
C       10.06423599       0.99793935       8.25466664
C       10.64912143       0.03811684       7.42470411
C        9.85203560      -0.88336696       6.73111430
Br      10.74913055      -2.10865854       5.59011110
C        3.40422600      -3.39717451       3.39619603
O        4.18133228      -4.21973975       4.17670929
C        2.37913737      -3.96889262       2.63260343
Cl       2.07076579      -5.67089847       2.64921245
C        1.57164369      -3.16638465       1.82757792
H        2.97183016      -0.13956652       2.51218138
H        6.48347285      -0.23025918       5.35000721
H        6.79799894       0.15210147       7.83120260
H        8.21826394       1.78775862       9.04216742
H       10.69097552       1.70416947       8.79213850
H       11.73113825       0.01277553       7.32286272
H        4.85699172      -3.61600293       4.58514390
H        0.78047022      -3.61432477       1.23528891
C       -0.00445707       0.01189536      -1.78238275
H       -0.66409135       0.67374010      -2.43557963
H        0.65740317      -0.63156657      -2.45157240
C       -0.90989263      -0.90692880      -0.91072765
C        0.90977584       0.90977584      -0.90977584
C       -0.00465871       1.77757030       0.00794375
H       -0.66225468       2.44313916      -0.64384735
H        0.64322798       2.43503045       0.67728295
C       -1.78241447       0.00034974      -0.00472694
H       -2.45427497      -0.65498947       0.64260836
H       -2.43311707       0.67328779      -0.65473579
C       -0.91132561       0.90220522       0.91563759
C       -0.01476271      -0.02253852       1.78660255
H       -0.67934791      -0.69751639       2.42135241
H        0.63392994       0.61504881       2.47327442
C        0.01484550      -1.77751727      -0.01636693
H        0.67870853      -2.42144646      -0.68295456
H       -0.62264859      -2.45592969       0.64226336
C        1.78714474       0.01002794       0.00389507
H        2.44202412       0.67113390       0.66197326
H        2.45385902      -0.65136977      -0.64189061
C        0.91606151      -0.90478549       0.90901405
