133
Properties=species:S:1:pos:R:3 pbc="F F F"
C        0.00000000       0.00000000       0.00000000
O        5.97616769       6.87303566      -4.47114279
C        5.30524634       6.32744497      -3.58977134
N        4.66274649       5.13947603      -3.85495354
N        3.80413709       4.50907376      -2.91349109
C        3.38592414       3.31462392      -3.35454493
H        3.67636944       2.86169191      -4.29860047
C        2.51564214       2.49790722      -2.49153186
C        2.45412095       1.11372024      -2.69988680
C        1.64433237       0.30488241      -1.89586360
C        0.88207911       0.88207911      -0.88207911
C        0.91994704       2.25655203      -0.66643957
C        1.73451213       3.05744825      -1.47083263
C        5.11479769       6.92923543      -2.20023485
C        6.27190828       7.79232794      -1.73770960
C        6.27587000       9.17336915      -1.97306699
C        7.34468950       9.96036358      -1.53943951
C        8.41542529       9.36509474      -0.87403511
C        8.43242801       7.99111545      -0.64454679
C        7.36340885       7.20646572      -1.07995515
H        4.77772743       4.72814010      -4.77081891
H        3.05562690       0.66075366      -3.48312447
H        1.62414144      -0.76631629      -2.06908490
H        0.33145813       2.72039606       0.11796558
H        1.76614557       4.13208268      -1.30365498
H        4.97438213       6.14482634      -1.44819790
H        4.19137701       7.52120558      -2.21358273
H        5.44778878       9.63331476      -2.50749996
H        7.33240061      11.02829156      -1.73272897
H        9.26730960       7.51865259      -0.13692915
H        7.37843447       6.13051666      -0.91325314
C        9.51603597      10.17722234      -0.42380750
C       10.43779741      10.85737920      -0.04674188
Br      11.92820771      11.95713533       0.56294133
O       -4.47124545      -5.97589284      -6.87320785
C       -3.58988833      -5.30493306      -6.32764125
N       -3.85500811      -4.66259950      -5.13956846
N       -2.91357178      -3.80395451      -4.50917566
C       -3.35453677      -3.38592870      -3.31462751
H       -4.29850723      -3.67653386      -2.86162072
C       -2.49152983      -2.51564141      -2.49790998
C       -2.69973340      -2.45430244      -1.11369214
C       -1.89571032      -1.64451442      -0.30485364
C       -0.88207911      -0.88207911      -0.88207911
C       -0.66659253      -0.91976509      -2.25658102
C       -1.47098403      -1.73433058      -3.05747840
C       -2.20044253      -5.11425655      -6.92956890
C       -1.73788365      -6.27121544      -7.79284674
C       -1.97339862      -6.27504607      -9.17386145
C       -1.53973891      -7.34372588      -9.96102780
C       -0.87414388      -8.41445362      -9.36595764
C       -0.64449639      -8.43158729      -7.99200657
C       -1.07993727      -7.36270776      -7.20718469
H       -4.77081324      -4.77773231      -4.72814089
H       -3.48285040      -3.05594985      -0.66070477
H       -2.06881134      -1.62446588       0.76636717
H        0.11769219      -0.33113335      -2.72044745
H       -1.30392574      -1.76582192      -4.13213556
H       -1.44833188      -4.97384468      -6.14522980
H       -2.21396380      -4.19076967      -7.52143184
H       -2.50797897      -5.44697338      -9.63365115
H       -1.73315198      -7.33133691     -11.02893224
H       -0.13672916      -9.26646484      -7.51969734
H       -0.91311042      -7.37783741      -6.13125644
C       -0.42388329      -9.51491984     -10.17826269
C       -0.04679004     -10.43656029     -10.85856817
Br       0.56293786     -11.92677496     -11.95856460
O       -6.94765883       5.84892688       4.52376043
C       -6.41253908       5.16015141       3.64977216
N       -5.18163862       4.59085458       3.88468286
N       -4.47414103       3.86370128       2.88885963
C       -3.35704608       3.31358962       3.38445728
H       -3.03239370       3.38530389       4.41896423
C       -2.51367958       2.48874852       2.50265312
C       -1.64367165       1.55049480       3.07356153
C       -0.83255620       0.74458981       2.26793236
C       -0.88207911       0.88207911       0.88207911
C       -1.73080279       1.81640802       0.29572784
C       -2.54116245       2.61483687       1.10679368
C       -7.03850947       4.92847329       2.27728521
C       -8.55366847       4.97373794       2.27453941
C       -9.23532998       6.17021989       2.01675627
C      -10.63133386       6.20061048       2.01254824
C      -11.34841373       5.03364566       2.27249575
C      -10.68495999       3.83912323       2.54400703
C       -9.28951136       3.81158417       2.54873419
H       -4.75286823       4.73556321       4.78825500
H       -1.61132636       1.43479463       4.15338403
H       -0.17666578       0.01625205       2.73399222
H       -1.77953853       1.93572494      -0.78137486
H       -3.20585282       3.34547056       0.65055984
H       -6.74234357       3.95554875       1.86951405
H       -6.64245638       5.68974221       1.59396673
H       -8.67418043       7.08321958       1.83120349
H      -11.14294516       7.13690346       1.81357252
H      -11.23595566       2.92889410       2.75804158
H       -8.76712749       2.88271953       2.77235725
C      -12.78806751       5.06425434       2.26474396
C      -13.99377756       5.08988911       2.25825183
Br     -15.94330872       5.13133837       2.24775461
O        5.29341478      -4.87317224       7.15375912
C        4.52697964      -4.04804273       6.64744028
N        4.29377108      -4.07221952       5.29118547
N        3.49459459      -3.09576084       4.63634652
C        3.32286330      -3.39167741       3.34055227
H        3.71783427      -4.27418448       2.84464306
C        2.48728854      -2.50822748       2.50956520
C        1.91788499      -3.01564179       1.33420120
C        1.11309155      -2.20867728       0.52330955
C        0.88207911      -0.88207911       0.88207911
C        1.44810902      -0.35543882       2.03939080
C        2.24735556      -1.16885200       2.84658545
C        3.83471037      -2.95399626       7.45556134
C        3.57395443      -3.32636176       8.90162963
C        4.50477625      -3.01595062       9.90157926
C        4.25339269      -3.35970613      11.23139376
C        3.07142841      -4.02077248      11.56235426
C        2.14230058      -4.34839982      10.57738986
C        2.39640358      -4.00470631       9.24871983
H        4.74545830      -4.78982013       4.74140801
H        2.08852331      -4.05258981       1.05839191
H        0.67298771      -2.62915839      -0.37523605
H        1.27830648       0.67550390       2.33108603
H        2.69036356      -0.75944222       3.75207744
H        2.86972905      -2.68749325       7.01018407
H        4.46121702      -2.05469124       7.41025706
H        5.43405358      -2.51558773       9.63896218
H        4.98685441      -3.11387085      11.99269588
H        1.22489403      -4.87259239      10.82540491
H        1.67837294      -4.26965417       8.47417716
C        2.81062688      -4.37219329      12.93424564
C        2.59220560      -4.66650823      14.08320467
Br       2.23903686      -5.14239059      15.94097426
