125
Properties=species:S:1:pos:R:3 pbc="F F F"
C        0.00000000       0.00000000       0.00000000
O        5.97616769       6.87303566      -4.47114279
C        5.30524634       6.32744497      -3.58977134
N        4.66274649       5.13947603      -3.85495354
N        3.80413709       4.50907376      -2.91349109
C        3.38592414       3.31462392      -3.35454493
H        3.67636944       2.86169191      -4.29860047
C        2.51564214       2.49790722      -2.49153186
C        2.45412095       1.11372024      -2.69988680
C        1.64433237       0.30488241      -1.89586360
C        0.88207911       0.88207911      -0.88207911
C        0.91994704       2.25655203      -0.66643957
C        1.73451213       3.05744825      -1.47083263
C        5.11479769       6.92923543      -2.20023485
C        6.27190828       7.79232794      -1.73770960
C        6.27587000       9.17336915      -1.97306699
C        7.34468950       9.96036358      -1.53943951
C        8.41542529       9.36509474      -0.87403511
Br       9.86134435      10.43202131      -0.28255195
C        8.43242801       7.99111545      -0.64454679
C        7.36340885       7.20646572      -1.07995515
H        4.77772743       4.72814010      -4.77081891
H        3.05562690       0.66075366      -3.48312447
H        1.62414144      -0.76631629      -2.06908490
H        0.33145813       2.72039606       0.11796558
H        1.76614557       4.13208268      -1.30365498
H        4.97438213       6.14482634      -1.44819790
H        4.19137701       7.52120558      -2.21358273
H        5.44778878       9.63331476      -2.50749996
H        7.33240061      11.02829156      -1.73272897
H        9.26730960       7.51865259      -0.13692915
H        7.37843447       6.13051666      -0.91325314
O       -5.10532535      -5.04059805      -7.17442274
C       -4.31259696      -4.23887782      -6.67098787
N       -4.19326006      -4.16195689      -5.30195911
N       -3.36670589      -3.19953311      -4.66046295
C       -3.32750877      -3.39274351      -3.33484071
H       -3.83785013      -4.19300612      -2.80580557
C       -2.48733122      -2.51004474      -2.50770526
C       -2.06225105      -2.95613568      -1.24934126
C       -1.25776059      -2.14864797      -0.43866982
C       -0.88207911      -0.88207911      -0.88207911
C       -1.30357592      -0.41557960      -2.12378312
C       -2.10342936      -1.22959280      -2.92977084
C       -3.46307780      -3.28031621      -7.50087396
C       -3.11977080      -3.79893375      -8.88324126
C       -3.93530094      -3.50359588      -9.98340931
C       -3.60820370      -3.98277672     -11.25351217
C       -2.46633646      -4.76422254     -11.42399614
Br      -2.02073589      -5.40962895     -13.14555278
C       -1.65279345      -5.07783899     -10.33745780
C       -1.98250311      -4.59860019      -9.06872642
H       -4.74970702      -4.78914183      -4.73783760
H       -2.34566765      -3.94737616      -0.90646122
H       -0.93090240      -2.52240303       0.52639538
H       -1.02023068       0.56836301      -2.48202093
H       -2.43358541      -0.86720729      -3.90109052
H       -2.51765563      -3.05468366      -6.99506707
H       -4.00926795      -2.33266624      -7.58423113
H       -4.83496130      -2.90823590      -9.84540629
H       -4.25287008      -3.74647448     -12.09407657
H       -0.76820872      -5.69460300     -10.46007962
H       -1.35591963      -4.85145481      -8.21482984
O       -7.02256807       5.69922456       4.59855350
C       -6.49791772       4.98952043       3.73502449
N       -5.22153715       4.51076431       3.92487461
N       -4.52999947       3.76538141       2.93132107
C       -3.35265131       3.31549510       3.38694658
H       -2.97204539       3.47198807       4.39262835
C       -2.51275491       2.48814333       2.50418299
C       -1.55241815       1.64162574       3.07368410
C       -0.74130605       0.83604923       2.26772310
C       -0.88207911       0.88207911       0.88207911
C       -1.82188507       1.72497670       0.29607687
C       -2.63144516       2.52349577       1.10785208
C       -7.18871151       4.63423221       2.42132426
C       -8.70114532       4.58872321       2.51207729
C       -9.47155781       5.72360647       2.22714186
C      -10.86443268       5.67029852       2.30976138
C      -11.48918639       4.48147834       2.68389041
Br     -13.37648803       4.40801287       2.79141672
C      -10.73621751       3.34833201       2.98354073
C       -9.34404582       3.40448046       2.90130344
H       -4.74965768       4.73787556       4.78915320
H       -1.44840507       1.59684856       4.15425139
H       -0.01385647       0.17921402       2.73383956
H       -1.94229354       1.77255133      -0.78095626
H       -3.36722053       3.18271678       0.65194591
H       -6.85624237       3.65679636       2.05436764
H       -6.88327547       5.37286238       1.67002747
H       -8.98157838       6.65484421       1.95218091
H      -11.44541389       6.55986467       2.08814257
H      -11.21455772       2.42226846       3.28606516
H       -8.75133360       2.52452206       3.14634861
O        4.39863969      -6.69647726       6.22522918
C        3.50715077      -6.12624870       5.58906318
N        3.81724722      -5.04765419       4.79227465
N        2.82529274      -4.29429453       4.10711467
C        3.37643512      -3.36793057       3.31072729
H        4.44399441      -3.21575292       3.17691448
C        2.49871775      -2.51540619       2.49095728
C        3.02217811      -1.89855890       1.34699098
C        2.21729209      -1.08761993       0.54016636
C        0.88207911      -0.88207911       0.88207911
C        0.34596185      -1.47612981       2.02084698
C        1.15499526      -2.28832612       2.81947163
C        2.03964991      -6.53818155       5.66643651
C        1.82651578      -8.00858733       5.96684271
C        1.67909465      -8.45749241       7.28571907
C        1.47917476      -9.81360782       7.55171001
C        1.43234795     -10.72468927       6.49751791
Br       1.15695900     -12.56136339       6.85759523
C        1.59086494     -10.29557433       5.18165098
C        1.79169266      -8.93967754       4.91845952
H        4.78445037      -4.76133521       4.73090086
H        4.06019690      -2.06603123       1.07327690
H        2.64314638      -0.63162906      -0.34786540
H       -0.69115349      -1.32457800       2.30046410
H        0.73784303      -2.75422644       3.70981376
H        1.52037250      -6.32058477       4.72644910
H        1.55893764      -5.92702432       6.44020336
H        1.73312720      -7.74757460       8.10790169
H        1.36963317     -10.14408647       8.57970150
H        1.56653358     -11.00000250       4.35635525
H        1.92807225      -8.60178796       3.89234406
