158
Properties=species:S:1:pos:R:3 pbc="F F F"
O        9.35305467       5.00743126      -1.69521246
C        8.28488845       4.93931561      -2.30916374
N        7.30686327       4.09561712      -1.84019096
N        6.07407170       3.95811335      -2.39927944
C        5.28059982       3.16416035      -1.74546233
C        3.90345378       2.88672898      -2.20259945
C        3.09882973       2.07591997      -1.39419648
C        1.79189897       1.79189897      -1.79189897
C        1.28212113       2.30547356      -2.98408545
C        2.08658542       3.11261709      -3.79010752
C        3.39203436       3.40294498      -3.39960055
O        4.12012560       4.19721309      -4.24134552
C        7.99474453       5.78058088      -3.54230448
C        8.97806117       5.56440288      -4.67230020
C        8.54860546       5.03165486      -5.89659535
C        9.44978757       4.85902708      -6.95102471
C       10.78693460       5.21364404      -6.78501951
C       11.23133964       5.74028586      -5.57554636
C       10.32834973       5.91839123      -4.52506553
H        7.55703765       3.57392699      -1.00539862
H        5.60199955       2.66480777      -0.81280374
H        3.48023415       1.66886131      -0.46142670
H        0.26403314       2.08488681      -3.29519181
H        1.69694366       3.51569121      -4.72157280
H        5.00316694       4.32614150      -3.83343831
H        8.02951286       6.83393813      -3.23658817
H        6.97656210       5.61629708      -3.90603514
H        7.50703677       4.75329189      -6.04361171
H        9.09855392       4.45092710      -7.89520077
H       12.27336877       6.01533043      -5.43718134
H       10.68845781       6.33098786      -3.58337434
C       11.71451592       5.03778256      -7.87233990
C       12.49136527       4.89049858      -8.78297073
Br      13.74746498       4.65235283     -10.25538376
O       -9.48821373      -4.66859208      -1.89889259
C       -8.39242243      -4.67481592      -2.46612946
N       -7.39840130      -3.85394650      -1.99032355
N       -6.13754219      -3.79557394      -2.49834837
C       -5.33798828      -3.00795755      -1.84427667
C       -3.93113548      -2.81157234      -2.25007438
C       -3.12639482      -2.00060410      -1.44194725
C       -1.79189897      -1.79189897      -1.79189897
C       -1.25469193      -2.38066748      -2.93632073
C       -2.05921018      -3.18787640      -3.74222346
C       -3.39220101      -3.40326671      -3.39911217
O       -4.11836257      -4.20256039      -4.23776126
C       -8.08750514      -5.58295586      -3.64716889
C       -9.01003964      -5.37579825      -4.82892636
C       -8.50413475      -4.91827922      -6.05444170
C       -9.34995160      -4.75472190      -7.15516586
C      -10.70775252      -5.04308386      -7.03476176
C      -11.22765704      -5.49453246      -5.82498236
C      -10.38011311      -5.66381415      -4.72787923
H       -7.66063995      -3.28455753      -1.19116577
H       -5.67657199      -2.45333145      -0.94970762
H       -3.52905676      -1.53548095      -0.54598444
H       -0.21510467      -2.21880879      -3.21019829
H       -1.64820298      -3.64932113      -4.63668355
H       -5.02321193      -4.27441023      -3.86512461
H       -8.18325855      -6.61885723      -3.29792338
H       -7.04809432      -5.47968055      -3.97111945
H       -7.44561254      -4.69233298      -6.16599484
H       -8.93992489      -4.40550256      -8.09925433
H      -12.28611283      -5.71753934      -5.72222838
H      -10.79909293      -6.01724889      -3.78647819
C      -11.57834253      -4.87664581      -8.16965005
C      -12.30746166      -4.73725394      -9.12011898
Br     -13.48638563      -4.51186908     -10.65694686
O       -1.65260695       5.08351438       9.31957706
C       -2.30972222       4.93831830       8.28532728
N       -1.72874024       4.29464109       7.21929001
N       -2.35608791       4.03524297       6.04013362
C       -1.64380062       3.34570353       5.20071834
C       -2.15484182       2.97201254       3.86592785
C       -1.34341538       2.16660271       3.05892809
C       -1.79189897       1.79189897       1.79189897
C       -3.03630608       2.21222017       1.32315389
C       -3.84367083       3.01696600       2.12867321
C       -3.40455963       3.39408926       3.39593100
O       -4.24818634       4.18499705       4.12550083
C       -3.74973033       5.41016856       8.15773099
C       -3.92736600       6.89467490       8.39272336
C       -4.38675328       7.72786702       7.36223537
C       -4.57948371       9.09402477       7.58633088
C       -4.30886330       9.63545915       8.84127570
C       -3.84870499       8.82400620       9.87446067
C       -3.66294144       7.45793599       9.65092905
H       -0.77186085       3.99096886       7.37353354
H       -0.62308909       3.00359218       5.45292979
H       -0.37160145       1.82926745       3.40965326
H       -3.38692256       1.92107791       0.33611128
H       -4.81445557       3.34982508       1.76992702
H       -3.81709543       4.35532594       4.99032539
H       -4.34259174       4.85888369       8.89856372
H       -4.17294193       5.13966622       7.18628617
H       -4.60630518       7.31997313       6.37766205
H       -4.94236195       9.72398187       6.77833798
H       -3.63158806       9.23968260      10.85460988
H       -3.30195381       6.83353674      10.46732946
C       -4.50976369      11.04252905       9.07234564
C       -4.67801776      12.22095010       9.26586672
Br      -4.95007037      14.12635726       9.57877394
O        1.76730775      -4.88307674       9.40531391
C        2.40029352      -4.78212918       8.35094510
N        1.80806678      -4.15102693       7.28357763
N        2.41041271      -3.93890998       6.08214180
C        1.69416604      -3.25263944       5.24341702
C        2.17911044      -2.92724431       3.88642745
C        1.36764596      -2.12171599       3.07958423
C        1.79189897      -1.79189897       1.79189897
C        3.01216132      -2.25704652       1.30247229
C        3.81954479      -3.06184182       2.10792342
C        3.40460130      -3.39431937       3.39565922
O        4.24656506      -4.18821010       4.12390905
C        3.82373934      -5.29514419       8.19874636
C        3.96913169      -6.77727253       8.46836003
C        4.37934703      -7.64870100       7.44880764
C        4.54259246      -9.01324378       7.70400312
C        4.29145249      -9.51470659       8.97943906
C        3.87997652      -8.66491227      10.00228307
C        3.72370589      -7.30062717       9.74747343
H        0.86378006      -3.81819965       7.45438354
H        0.68968236      -2.87717534       5.51275336
H        0.41451572      -1.74977633       3.44623010
H        3.34388118      -2.00090429       0.29932628
H        4.77154946      -3.42948830       1.73316991
H        3.83430585      -4.32464512       5.00379579
H        4.45008557      -4.74082084       8.90913275
H        4.22788497      -5.06115009       7.20985927
H        4.58317409      -7.27234732       6.44841896
H        4.86751673      -9.67326856       6.90389650
H        3.67826436      -9.04922200      10.99839418
H        3.40075032      -6.64598935      10.55608034
C        4.46199024     -10.92016997       9.24247818
C        4.60481560     -12.09724555       9.46277343
Br       4.83575214     -14.00047720       9.81897224
C       -0.00445707       0.01189536      -1.78238275
H       -0.66409135       0.67374010      -2.43557963
H        0.65740317      -0.63156657      -2.45157240
C       -0.90989263      -0.90692880      -0.91072765
C        0.90977584       0.90977584      -0.90977584
C       -0.00465871       1.77757030       0.00794375
H       -0.66225468       2.44313916      -0.64384735
H        0.64322798       2.43503045       0.67728295
C       -1.78241447       0.00034974      -0.00472694
H       -2.45427497      -0.65498947       0.64260836
H       -2.43311707       0.67328779      -0.65473579
C       -0.91132561       0.90220522       0.91563759
C       -0.01476271      -0.02253852       1.78660255
H       -0.67934791      -0.69751639       2.42135241
H        0.63392994       0.61504881       2.47327442
C        0.01484550      -1.77751727      -0.01636693
H        0.67870853      -2.42144646      -0.68295456
H       -0.62264859      -2.45592969       0.64226336
C        1.78714474       0.01002794       0.00389507
H        2.44202412       0.67113390       0.66197326
H        2.45385902      -0.65136977      -0.64189061
C        0.91606151      -0.90478549       0.90901405
