137
Properties=species:S:1:pos:R:3 pbc="F F F"
C        0.00000000       0.00000000       0.00000000
O        8.44315065       4.09752724      -0.78530844
C        7.37498443       4.02941159      -1.39925972
N        6.39695925       3.18571310      -0.93028693
N        5.16416768       3.04820933      -1.48937542
C        4.37069580       2.25425632      -0.83555831
C        2.99354975       1.97682495      -1.29269543
C        2.18892570       1.16601595      -0.48429245
C        0.88199494       0.88199494      -0.88199494
C        0.37221710       1.39556953      -2.07418143
C        1.17668140       2.20271307      -2.88020350
C        2.48213034       2.49304095      -2.48969653
O        3.21022158       3.28730907      -3.33144149
C        7.08484050       4.87067686      -2.63240045
C        8.06815714       4.65449885      -3.76239618
C        7.63870143       4.12175084      -4.98669133
C        8.53988354       3.94912306      -6.04112069
C        9.87703057       4.30374001      -5.87511549
C       10.32143562       4.83038183      -4.66564234
C        9.41844570       5.00848721      -3.61516150
H        6.64713363       2.66402296      -0.09549459
H        4.69209552       1.75490375       0.09710028
H        2.57033013       0.75895728       0.44847733
H       -0.64587088       1.17498278      -2.38528779
H        0.78703963       2.60578719      -3.81166877
H        4.09326292       3.41623748      -2.92353429
H        7.11960884       5.92403411      -2.32668414
H        6.06665808       4.70639305      -2.99613112
H        6.59713275       3.84338786      -5.13370768
H        8.18864990       3.54102308      -6.98529674
H       11.36346475       5.10542641      -4.52727732
H        9.77855379       5.42108384      -2.67347031
C       10.80461189       4.12787854      -6.96243588
C       11.58146125       3.98059455      -7.87306671
Br      12.83756096       3.74244881      -9.34547974
O       -8.63226325      -3.60418900      -1.08953408
C       -7.52559589      -3.64424868      -1.63381117
N       -6.52467482      -2.83399379      -1.15429066
N       -5.25287274      -2.81159816      -1.63728152
C       -4.45062550      -2.02697696      -0.98290797
C       -3.03211000      -1.86746791      -1.36349222
C       -2.22730934      -1.05643243      -0.55549233
C       -0.88199494      -0.88199494      -0.88199494
C       -0.33403013      -1.50497289      -2.00296505
C       -1.13857589      -2.31220924      -2.80881283
C       -2.48238554      -2.49350059      -2.48898168
O       -3.20778240      -3.29508352      -3.32610622
C       -7.21567025      -4.58252658      -2.78972099
C       -8.10967039      -4.38118562      -3.99419617
C       -7.56977946      -3.95935202      -5.21801212
C       -8.38963037      -3.80147220      -6.33902472
C       -9.75524472      -4.05979619      -6.24084516
C      -10.30868632      -4.47560352      -5.03316995
C       -9.48715394      -4.63931490      -3.91562557
H       -6.79120936      -2.24306321      -0.37237861
H       -4.79570552      -1.44729293      -0.10690053
H       -2.63831479      -0.56489058       0.32239529
H        0.71399543      -1.36983479      -2.25856032
H       -0.71918317      -2.80021183      -3.68510059
H       -4.12126550      -3.34093609      -2.97083309
H       -7.33980287      -5.60885921      -2.42166501
H       -6.16801743      -4.50697648      -3.09418834
H       -6.50478503      -3.75718820      -5.31225507
H       -7.95349733      -3.48015228      -7.28132010
H      -11.37337595      -4.67501202      -4.94778051
H       -9.93226898      -4.96472299      -2.97611597
C      -10.59910876      -3.89924083      -7.39657673
C      -11.30584489      -3.76477571      -8.36450192
Br     -12.44857743      -3.54735698      -9.92955509
O       -0.79608340       4.07860184       8.45130108
C       -1.44198267       3.95437202       7.40730104
N       -0.85572131       3.31668184       6.34055612
N       -1.47145689       3.07968183       5.15061370
C       -0.75730312       2.39170551       4.31150180
C       -1.25621674       2.04089695       2.96595644
C       -0.44477139       1.23543164       2.15903107
C       -0.88199494       0.88199494       0.88199494
C       -2.11518255       1.32355424       0.40323128
C       -2.92255655       2.12832321       1.20871821
C       -2.49467697       2.48429318       2.48589766
O       -3.33753027       3.27661461       3.21482726
C       -2.87436267       4.44568892       7.26786622
C       -3.03660926       5.92928748       7.51915544
C       -3.47280110       6.78078201       6.49356049
C       -3.65146260       8.14637280       6.73229189
C       -3.38986945       8.66888260       7.99713403
C       -2.95267246       7.83908104       9.02570629
C       -2.78098273       6.47365775       8.78745393
H        0.09534427       2.99921667       6.50277878
H        0.25588876       2.03380343       4.57198431
H        0.51836013       0.88170102       2.51746919
H       -2.45701767       1.04899479      -0.59161277
H       -3.88461411       2.47766434       0.84221714
H       -2.91519699       3.43088131       4.08695639
H       -3.48316975       3.89275653       7.99440081
H       -3.28872201       4.19247976       6.28798047
H       -3.68506135       6.38782318       5.50134376
H       -3.99644076       8.79071760       5.92781135
H       -2.74269570       8.23990609      10.01356668
H       -2.43793129       5.83478993       9.60038672
C       -3.57628250      10.07539524       8.24324858
C       -3.73240343      11.25334957       8.44936951
Br      -3.98483777      13.15800210       8.78264963
O        0.91119969      -3.88365890       8.53112773
C        1.53283308      -3.80249262       7.46833003
N        0.93545261      -3.17693746       6.40056920
N        1.52601144      -2.98597080       5.18977018
C        0.80796978      -2.30112465       4.35141600
C        1.28062875      -1.99732423       2.98511715
C        0.46914957      -1.19174119       2.17834334
C        0.88199494      -0.88199494       0.88199494
C        2.09088839      -1.36718718       0.38389249
C        2.89827924      -2.17200538       1.18931334
C        2.49471167      -2.48452106       2.48563509
O        3.33589418      -3.27974469       3.21333327
C        2.94830336      -4.33401028       7.30560417
C        3.07957080      -5.81450577       7.59097560
C        3.46753412      -6.70254666       6.57706282
C        3.61785347      -8.06585163       6.84642219
C        3.37595078      -8.54940582       8.13052947
C        2.98651354      -7.68294282       9.14800343
C        2.84316956      -6.31997331       8.87895154
H       -0.00280654      -2.83102027       6.57843746
H       -0.18881800      -1.91071692       4.62800007
H       -0.47518459      -0.80432849       2.55166618
H        2.41371191      -1.12669491      -0.62600714
H        3.84144238      -2.55520677       0.80784644
H        2.93248400      -3.40103340       4.09951728
H        3.58941194      -3.77886927       8.00204587
H        3.34345263      -4.11635149       6.30937813
H        3.66391705      -6.34031807       5.56999318
H        3.92559281      -8.73895193       6.05042497
H        2.79210194      -8.05320123      10.15086531
H        2.53743613      -5.65218332       9.68348849
C        3.53317675      -9.95362032       8.40812925
C        3.66485349     -11.12964996       8.64061906
Br       3.87776365     -13.03119043       9.01653542
