150
Properties=species:S:1:pos:R:3 pbc="F F F"
O        9.35305467       5.00743126      -1.69521246
C        8.28488845       4.93931561      -2.30916374
N        7.30686327       4.09561712      -1.84019096
N        6.07407170       3.95811335      -2.39927944
C        5.28059982       3.16416035      -1.74546233
C        3.90345378       2.88672898      -2.20259945
C        3.09882973       2.07591997      -1.39419648
C        1.79189897       1.79189897      -1.79189897
C        1.28212113       2.30547356      -2.98408545
C        2.08658542       3.11261709      -3.79010752
C        3.39203436       3.40294498      -3.39960055
O        4.12012560       4.19721309      -4.24134552
C        7.99474453       5.78058088      -3.54230448
C        8.97806117       5.56440288      -4.67230020
C        8.54860546       5.03165486      -5.89659535
C        9.44978757       4.85902708      -6.95102471
C       10.78693460       5.21364404      -6.78501951
Br      12.00458179       4.98278856      -8.21235811
C       11.23133964       5.74028586      -5.57554636
C       10.32834973       5.91839123      -4.52506553
H        7.55703765       3.57392699      -1.00539862
H        5.60199955       2.66480777      -0.81280374
H        3.48023415       1.66886131      -0.46142670
H        0.26403314       2.08488681      -3.29519181
H        1.69694366       3.51569121      -4.72157280
H        5.00316694       4.32614150      -3.83343831
H        8.02951286       6.83393813      -3.23658817
H        6.97656210       5.61629708      -3.90603514
H        7.50703677       4.75329189      -6.04361171
H        9.09855392       4.45092710      -7.89520077
H       12.27336877       6.01533043      -5.43718134
H       10.68845781       6.33098786      -3.58337434
O       -9.67472442      -4.04752777      -2.33344620
C       -8.54202074      -4.18952775      -2.80181931
N       -7.52182099      -3.41213967      -2.30871068
N       -6.22431420      -3.49797692      -2.70917338
C       -5.41424957      -2.72281986      -2.05315307
C       -3.96796549      -2.67436248      -2.35045424
C       -3.16295659      -1.86314518      -1.54284440
C       -1.79189897      -1.79189897      -1.79189897
C       -1.21836968      -2.51788213      -2.83542833
C       -2.02301006      -3.32519188      -3.64110810
C       -3.39260675      -3.40378630      -3.39818684
O       -4.11615013      -4.21227360      -4.23026048
C       -8.22380915      -5.21741453      -3.87640621
C       -9.02839489      -5.04038205      -5.14598731
C       -8.38932292      -4.73178967      -6.35574308
C       -9.12790554      -4.59715699      -7.53477683
C      -10.51076672      -4.76545150      -7.50937993
Br     -11.50872577      -4.58624867      -9.10475402
C      -11.16197043      -5.06826130      -6.31694013
C      -10.42187888      -5.20902808      -5.14089952
H       -7.79655908      -2.75697745      -1.58282673
H       -5.77364783      -2.06803800      -1.23792523
H       -3.59381818      -1.29204709      -0.72465688
H       -0.15026284      -2.46320923      -3.03063969
H       -1.58366278      -3.89316928      -4.45737561
H       -5.05052113      -4.17973129      -3.93249434
H       -8.43590733      -6.20848076      -3.45565107
H       -7.15695596      -5.22522426      -4.11671411
H       -7.30976250      -4.60097899      -6.39319888
H       -8.61571083      -4.36425261      -8.46471835
H      -12.24051353      -5.19691668      -6.28845033
H      -10.94311527      -5.44564036      -4.21406438
O       -1.33842967       5.72502617       8.99224256
C       -2.06090989       5.43862696       8.03383095
N       -1.51320232       4.75328724       6.97618179
N       -2.20777665       4.34328166       5.88040618
C       -1.50761080       3.64254958       5.04006212
C       -2.08919248       3.11482367       3.78876605
C       -1.27793492       2.30975607       2.98125518
C       -1.79189897       1.79189897       1.79189897
C       -3.10152013       2.06927795       1.40088205
C       -3.90880488       2.87388188       2.20662328
C       -3.40433958       3.39341339       3.39682691
O       -4.25249435       4.17478951       4.13140035
C       -3.54201019       5.78117278       7.99444692
C       -3.82849633       7.26154012       8.12472780
C       -4.43924596       7.96281221       7.07479751
C       -4.73131936       9.32350600       7.20501400
C       -4.40941341       9.99168511       8.38449962
Br      -4.80740226      11.83115409       8.56117211
C       -3.79956969       9.31229617       9.43530600
C       -3.51437716       7.95118217       9.30624716
H       -0.52433017       4.54149681       7.07053627
H       -0.44419599       3.40618615       5.22922892
H       -0.25562798       2.08278293       3.27211125
H       -3.50320459       1.66651205       0.47439511
H       -4.93034152       3.09579604       1.90807011
H       -3.77016616       4.45340038       4.93918023
H       -4.02375584       5.25071291       8.82557040
H       -4.01632977       5.39446222       7.08810234
H       -4.70044976       7.45478476       6.14870585
H       -5.21083461       9.84997526       6.38387191
H       -3.54181247       9.82747350      10.35659457
H       -3.03655064       7.43081079      10.13545858
O        1.22430867      -6.01145976       8.81992997
C        1.97011137      -5.66221961       7.90103682
N        1.43591890      -4.95757804       6.84917441
N        2.15418739      -4.48068167       5.79659544
C        1.45916151      -3.77459115       4.95646984
C        2.06582255      -3.17835522       3.74860443
C        1.25466368      -2.37342214       2.94086035
C        1.79189897      -1.79189897       1.79189897
C        3.12467651      -2.00571502       1.44128860
C        3.93191560      -2.81026372       2.24713072
C        3.40419849      -3.39314157       3.39723983
O        4.25398248      -4.17026944       4.13443229
C        3.46366997      -5.94823994       7.90571997
C        3.80155187      -7.42095224       7.99226014
C        4.47691165      -8.05860625       6.94133778
C        4.81580000      -9.41160551       7.03243386
C        4.47646256     -10.13578946       8.17334612
Br       4.93771079     -11.96476504       8.29725263
C        3.80281179      -9.51998789       9.22437219
C        3.47073591      -8.16635990       9.13471067
H        0.43686942      -4.78610561       6.91338822
H        0.38124381      -3.58495000       5.11341725
H        0.21441052      -2.19553211       3.20057953
H        3.54451129      -1.55330506       0.54629541
H        4.97148955      -2.98283599       1.97988212
H        3.75324203      -4.49713048       4.91237426
H        3.89385263      -5.43256431       8.77362222
H        3.95590960      -5.50995820       7.03302651
H        4.75242493      -7.50627100       6.04524443
H        5.34500300      -9.88828235       6.21139643
H        3.53119044     -10.07915239      10.11553772
H        2.94315527      -7.69601867       9.96364608
C       -0.00445707       0.01189536      -1.78238275
H       -0.66409135       0.67374010      -2.43557963
H        0.65740317      -0.63156657      -2.45157240
C       -0.90989263      -0.90692880      -0.91072765
C        0.90977584       0.90977584      -0.90977584
C       -0.00465871       1.77757030       0.00794375
H       -0.66225468       2.44313916      -0.64384735
H        0.64322798       2.43503045       0.67728295
C       -1.78241447       0.00034974      -0.00472694
H       -2.45427497      -0.65498947       0.64260836
H       -2.43311707       0.67328779      -0.65473579
C       -0.91132561       0.90220522       0.91563759
C       -0.01476271      -0.02253852       1.78660255
H       -0.67934791      -0.69751639       2.42135241
H        0.63392994       0.61504881       2.47327442
C        0.01484550      -1.77751727      -0.01636693
H        0.67870853      -2.42144646      -0.68295456
H       -0.62264859      -2.45592969       0.64226336
C        1.78714474       0.01002794       0.00389507
H        2.44202412       0.67113390       0.66197326
H        2.45385902      -0.65136977      -0.64189061
C        0.91606151      -0.90478549       0.90901405
