129
Properties=species:S:1:pos:R:3 pbc="F F F"
C        0.00000000       0.00000000       0.00000000
O        8.44315065       4.09752724      -0.78530844
C        7.37498443       4.02941159      -1.39925972
N        6.39695925       3.18571310      -0.93028693
N        5.16416768       3.04820933      -1.48937542
C        4.37069580       2.25425632      -0.83555831
C        2.99354975       1.97682495      -1.29269543
C        2.18892570       1.16601595      -0.48429245
C        0.88199494       0.88199494      -0.88199494
C        0.37221710       1.39556953      -2.07418143
C        1.17668140       2.20271307      -2.88020350
C        2.48213034       2.49304095      -2.48969653
O        3.21022158       3.28730907      -3.33144149
C        7.08484050       4.87067686      -2.63240045
C        8.06815714       4.65449885      -3.76239618
C        7.63870143       4.12175084      -4.98669133
C        8.53988354       3.94912306      -6.04112069
C        9.87703057       4.30374001      -5.87511549
Br      11.09467776       4.07288453      -7.30245408
C       10.32143562       4.83038183      -4.66564234
C        9.41844570       5.00848721      -3.61516150
H        6.64713363       2.66402296      -0.09549459
H        4.69209552       1.75490375       0.09710028
H        2.57033013       0.75895728       0.44847733
H       -0.64587088       1.17498278      -2.38528779
H        0.78703963       2.60578719      -3.81166877
H        4.09326292       3.41623748      -2.92353429
H        7.11960884       5.92403411      -2.32668414
H        6.06665808       4.70639305      -2.99613112
H        6.59713275       3.84338786      -5.13370768
H        8.18864990       3.54102308      -6.98529674
H       11.36346475       5.10542641      -4.52727732
H        9.77855379       5.42108384      -2.67347031
O       -7.25225261      -6.00780468      -0.06592903
C       -6.43595916      -5.51720753      -0.85048904
N       -5.57011621      -4.55627715      -0.38656591
N       -4.59922750      -3.96683181      -1.13569311
C       -3.84450780      -3.14307308      -0.47292954
C       -2.74005389      -2.40436169      -1.11865455
C       -1.93570539      -1.59475034      -0.30877837
C       -0.88199494      -0.88199494      -0.88199494
C       -0.62460421      -0.96737740      -2.24998646
C       -1.42892722      -1.77401905      -3.05665169
C       -2.48189331      -2.49073595      -2.49223855
O       -3.22730003      -3.25654661      -3.34512550
C       -6.32566739      -5.96163487      -2.30061556
C       -7.60583949      -5.78981762      -3.08939507
C       -7.65612614      -4.91027800      -4.18073946
C       -8.82912994      -4.77267605      -4.92832130
C       -9.96018966      -5.51043437      -4.58526204
Br     -11.54532944      -5.32619195      -5.59849499
C       -9.92931544      -6.38522377      -3.50292058
C       -8.75454043      -6.52661376      -2.76094022
H       -5.68492899      -4.31509187       0.59336968
H       -3.99419437      -2.96343558       0.60773096
H       -2.12186129      -1.51821231       0.75926351
H        0.19600935      -0.41249070      -2.69791833
H       -1.23554408      -1.84482300      -4.12412851
H       -3.91418191      -3.70886592      -2.80998686
H       -6.04859367      -7.02345288      -2.29828053
H       -5.50750044      -5.44822908      -2.81345273
H       -6.78044527      -4.32981941      -4.46396361
H       -8.84854938      -4.09141123      -5.77500910
H      -10.80853090      -6.96085251      -3.22678506
H       -8.74316240      -7.21401657      -1.91592896
O       -0.48352484       4.68989789       8.15256359
C       -1.19466416       4.43101196       7.17797962
N       -0.64078600       3.75397411       6.11819916
N       -1.32376722       3.37328145       5.00470375
C       -0.62130110       2.67482153       4.16438780
C       -1.19066564       2.17709910       2.89530539
C       -0.37936948       1.37196912       2.08789550
C       -0.88199494       0.88199494       0.88199494
C       -2.18032855       1.18721349       0.47442603
C       -2.98763131       1.99184315       1.28012350
C       -2.49448888       2.48363405       2.48674489
O       -3.34185474       3.26686893       3.22024847
C       -2.66916804       4.79850581       7.12024396
C       -2.93373032       6.28108604       7.27023582
C       -3.51565299       7.00925016       6.22224045
C       -3.78773964       8.37228190       6.37010574
C       -3.47452195       9.01586208       7.56550204
Br      -3.84550116      10.85853312       7.76598210
C       -2.89316470       8.30957599       8.61471910
C       -2.62798295       6.94621875       8.46789271
H        0.34283483       3.52441924       6.22506677
H        0.43488218       2.41793542       4.36684575
H        0.63419377       1.12349987       2.39150399
H       -2.57316981       0.80618939      -0.46495952
H       -4.00037965       2.23536684       0.96874910
H       -2.86844787       3.52436654       4.04022027
H       -3.17307548       4.26265361       7.93459800
H       -3.13469664       4.43440296       6.20008264
H       -3.76976371       6.52067180       5.28379279
H       -4.24506548       8.91981961       5.55008463
H       -2.64230463       8.80543695       9.54842689
H       -2.17237952       6.40467434       9.29605409
O        0.34071305      -5.03173189       7.95354138
C        1.08116907      -4.69779857       7.02468810
N        0.54375952      -3.99790261       5.97129714
N        1.25661725      -3.53729169       4.90784348
C        0.56035413      -2.83252824       4.06762806
C        1.16127220      -2.25297760       2.84882033
C        0.35008793      -1.44801279       2.04113339
C        0.88199494      -0.88199494       0.88199494
C        2.20947199      -1.11129068       0.52120540
C        3.01672278      -1.91585236       1.32702282
C        2.49433133      -2.48330208       2.48723440
O        3.34374084      -3.26146510       3.22376620
C        2.57203085      -4.99752830       7.01835867
C        2.89722263      -6.47244206       7.11538749
C        3.55700411      -7.12587661       6.06426288
C        3.88433839      -8.48105508       6.16473382
C        3.54893445      -9.19162061       7.31533101
Br       3.99457074     -11.02356401       7.45188162
C        2.89066306      -8.56005146       8.36674526
C        2.57015966      -7.20429405       8.26764070
H       -0.45304626      -3.81664271       6.04305473
H       -0.51429181      -2.63152614       4.23266466
H       -0.68605610      -1.25816894       2.30869724
H        2.62515092      -0.67097113      -0.38172236
H        4.05216681      -2.10044145       1.05188734
H        2.84723085      -3.57656984       4.00923400
H        3.01489564      -4.47793186       7.87749959
H        3.06018510      -4.57179983       6.13719732
H        3.82927684      -6.58431907       5.16063238
H        4.40156709      -8.97007688       5.34332574
H        2.62217407      -9.10851862       9.26547578
H        2.05456813      -6.72155010       9.09698971
