170
Properties=species:S:1:pos:R:3 pbc="F F F"
O        7.35488367       7.78029146      -0.87455360
C        6.74933912       7.05656885      -1.66893367
N        5.80142727       6.17874522      -1.19891966
N        5.08563661       5.32982807      -1.98851700
C        4.28253808       4.54746532      -1.33296417
C        3.42332038       3.55360563      -2.01131318
C        2.61238515       2.75132869      -1.20241400
C        1.79215245       1.79215245      -1.79215245
C        1.77007102       1.62647489      -3.17681474
C        2.56994000       2.43363372      -3.99997997
C        2.55616250       2.22707304      -5.48837096
C        3.40337773       3.39251889      -3.40528097
O        4.18466094       4.15370568      -4.23404689
C        7.02337001       7.09034606      -3.15929999
C        8.22608965       6.26291364      -3.54435126
C        9.52133633       6.78038684      -3.39459298
C       10.63573132       6.01393315      -3.74310031
C       10.45925133       4.72297005      -4.23555503
C        9.18018528       4.19013872      -4.37797025
C        8.06679500       4.95796913      -4.03071324
H        5.67465498       6.17911415      -0.19175740
H        4.20936028       4.59088745      -0.23055544
H        2.61886530       2.86519057      -0.12193127
H        1.12853874       0.86793888      -3.62137956
H        2.50454518       3.18539961      -6.01494989
H        1.68286415       1.64333558      -5.79944392
H        3.45667104       1.68907389      -5.80036413
H        4.67377919       4.79473579      -3.67538751
H        7.19166706       8.13751574      -3.44258115
H        6.14213403       6.78217289      -3.73151545
H        9.66897503       7.78435962      -2.99962704
H       11.63175954       6.43161845      -3.62377123
H        9.03717002       3.18178365      -4.75669562
H        7.07452430       4.52766236      -4.14418911
C       11.60662380       3.93187926      -4.59792468
C       12.56754825       3.26934073      -4.90140927
Br      14.12128181       2.19807196      -5.39211819
O       -9.51296640      -4.62526222      -1.87150010
C       -8.42872376      -4.58767371      -2.45844417
N       -7.36990273      -3.92490156      -1.88428787
N       -6.13647684      -3.81485827      -2.45264656
C       -5.29870689      -3.09904713      -1.76521354
C       -3.91142160      -2.85962425      -2.21719333
C       -3.10398858      -2.05681183      -1.40532744
C       -1.79215245      -1.79215245      -1.79215245
C       -1.27722952      -2.32026517      -2.97586595
C       -2.07353356      -3.13723459      -3.79278554
C       -1.51472798      -3.67837666      -5.07850186
C       -3.39764034      -3.39530950      -3.40822775
O       -4.15503778      -4.18256237      -4.23481335
C       -8.22142290      -5.24149417      -3.81009898
C       -8.70566002      -4.37783586      -4.94985867
C      -10.06721886      -4.34332691      -5.28577038
C      -10.51849167      -3.53933993      -6.33493319
C       -9.61022650      -2.75996527      -7.04758464
C       -8.25695243      -2.77340831      -6.71793352
C       -7.80678708      -3.57882419      -5.66986610
H       -7.56929032      -3.48459925      -0.99163697
H       -5.59159841      -2.63286024      -0.80634452
H       -3.48957911      -1.63521608      -0.48119195
H       -0.25227326      -2.09844605      -3.26713787
H       -1.76879690      -4.73623274      -5.19986503
H       -0.42165199      -3.60748006      -5.09651161
H       -1.90889856      -3.11036364      -5.92684685
H       -5.03261240      -4.29903314      -3.81225696
H       -8.77288796      -6.19071438      -3.80816162
H       -7.17399325      -5.52486806      -3.95696105
H      -10.78577504      -4.94060520      -4.72658144
H      -11.57616345      -3.52714624      -6.58383953
H       -7.54503472      -2.16339155      -7.26722302
H       -6.74798582      -3.57667115      -5.42171882
C      -10.07285232      -1.93225767      -8.13131776
C      -10.46030145      -1.23905256      -9.03894425
Br     -11.08677392      -0.11819852     -10.50649952
O       -3.84149607       2.43705875       9.73117390
C       -3.97556048       2.90251331       8.59676785
N       -3.36155917       2.28399963       7.53353336
N       -3.43663825       2.72187429       6.24546913
C       -2.73596495       2.02077000       5.40623261
C       -2.68550319       2.33944184       3.96329416
C       -1.88215465       1.52716864       3.15680456
C       -1.79215245       1.79215245       1.79215245
C       -2.49496489       2.85443346       1.22396230
C       -3.31396708       3.66908959       2.02049702
C       -4.04516965       4.82616638       1.40027046
C       -3.39649487       3.40834198       3.39634074
O       -4.19100151       4.23122705       4.15018494
C       -4.79076527       4.15220393       8.33004685
C       -4.01364853       5.41774574       8.60196027
C       -3.88202627       5.90255738       9.91173250
C       -3.15725487       7.06899524      10.16651467
C       -2.55405222       7.75122587       9.11249832
C       -2.66470745       7.27559182       7.80799498
C       -3.39090291       6.11021778       7.55435667
H       -2.80860671       1.46637202       7.77054781
H       -2.14093380       1.15044456       5.73942480
H       -1.32588978       0.69695491       3.58314245
H       -2.40857147       3.05211196       0.15717376
H       -5.07970585       4.86970141       1.75548742
H       -4.08483129       4.73121961       0.30959275
H       -3.53742559       5.76445024       1.64423322
H       -4.17335090       3.89794246       5.07260914
H       -5.67501186       4.11708162       8.97967048
H       -5.19044139       4.15476071       7.31062027
H       -4.34064568       5.36928932      10.74302669
H       -3.06814472       7.43225860      11.18674591
H       -2.19174945       7.80105228       6.98284756
H       -3.46601763       5.74899647       6.53136168
C       -1.80848696       8.95543973       9.37250107
C       -1.18407605       9.96396883       9.59025337
Br      -0.17445643      11.59467510       9.94234043
O        2.28450528      -4.03575399       9.68946946
C        2.76136778      -4.15529181       8.55818205
N        2.23729882      -3.42102685       7.52076649
N        2.68248372      -3.48679726       6.23470070
C        2.00979761      -2.74993693       5.40323303
C        2.33702663      -2.68857865       3.96263390
C        1.53201052      -1.87598912       3.15812821
C        1.79215245      -1.79215245       1.79215245
C        2.84552689      -2.50630630       1.22152746
C        3.66796290      -3.31540179       2.02018901
C        4.78318406      -4.09990231       1.38852013
C        3.39958530      -3.40764542       3.39394687
O        4.20966556      -4.21845739       4.14429055
C        3.90816374      -5.10152017       8.26333213
C        3.44577715      -6.52470590       8.06287150
C        3.18103852      -7.34754291       9.16773471
C        2.74597867      -8.66208017       8.98470594
C        2.56611988      -9.15664144       7.69501508
C        2.81235522      -8.34808556       6.58785347
C        3.24880294      -7.03455974       6.77211469
H        1.45580861      -2.82205791       7.76766002
H        1.15545036      -2.13455954       5.74079327
H        0.70574966      -1.31469076       3.58554673
H        3.03129577      -2.43507830       0.15148311
H        5.69957842      -4.02296043       1.98235583
H        5.01730233      -3.72054044       0.38780089
H        4.49640019      -5.15213002       1.29757884
H        3.91987899      -4.14541744       5.07860606
H        4.60258792      -5.05677982       9.11239622
H        4.49306742      -4.75964977       7.40310518
H        3.30795911      -6.96549398      10.17950860
H        2.54872355      -9.28672077       9.85170490
H        2.66862837      -8.72725459       5.57976633
H        3.43392623      -6.41397239       5.89847717
C        2.12011481     -10.51242527       7.50388767
C        1.74658556     -11.64789423       7.34381847
Br       1.14262036     -13.48385150       7.08500010
C       -0.00445707       0.01189536      -1.78238275
H       -0.66409135       0.67374010      -2.43557963
H        0.65740317      -0.63156657      -2.45157240
C       -0.90989263      -0.90692880      -0.91072765
C        0.90977584       0.90977584      -0.90977584
C       -0.00465871       1.77757030       0.00794375
H       -0.66225468       2.44313916      -0.64384735
H        0.64322798       2.43503045       0.67728295
C       -1.78241447       0.00034974      -0.00472694
H       -2.45427497      -0.65498947       0.64260836
H       -2.43311707       0.67328779      -0.65473579
C       -0.91132561       0.90220522       0.91563759
C       -0.01476271      -0.02253852       1.78660255
H       -0.67934791      -0.69751639       2.42135241
H        0.63392994       0.61504881       2.47327442
C        0.01484550      -1.77751727      -0.01636693
H        0.67870853      -2.42144646      -0.68295456
H       -0.62264859      -2.45592969       0.64226336
C        1.78714474       0.01002794       0.00389507
H        2.44202412       0.67113390       0.66197326
H        2.45385902      -0.65136977      -0.64189061
C        0.91606151      -0.90478549       0.90901405
