153
Properties=species:S:1:pos:R:3 pbc="F F F"
C        0.00000000       0.00000000       0.00000000
C        7.08395915      -0.62804453      -5.92377351
O        8.47428902      -0.39703144      -5.71594593
C        8.81223644       0.70147153      -4.96579769
C        7.91898845       1.59904547      -4.38367955
C        8.40535605       2.68437835      -3.64070700
C        7.46757457       3.64341016      -3.02137070
N        6.18684644       3.50144418      -3.14893032
N        5.43024413       4.45084811      -2.53945784
C        4.05734055       4.46745454      -2.60463582
O        3.43070251       5.37192894      -2.04806637
C        3.36652784       3.35870833      -3.38220724
C        2.49428437       2.48910830      -2.50789941
C        1.11862984       2.73806670      -2.40396410
C        0.31261131       1.93376025      -1.59561797
C        0.88186199       0.88186199      -0.88186199
C        2.25005865       0.62971456      -0.96421678
C        3.05568719       1.43274916      -1.77388519
C        9.77818206       2.88121869      -3.47376683
C       10.67259150       1.98218893      -4.05527987
C       10.19009354       0.90062007      -4.79500732
O       11.06031532       0.01036517      -5.37087826
H        6.98359712      -1.52482053      -6.54278519
H        6.62216379       0.20409514      -6.46555621
H        6.57043481      -0.81788596      -4.97538675
H        6.84539968       1.47884703      -4.49309913
H        7.90906409       4.48178374      -2.45192953
H        5.86192796       5.20607145      -2.01670438
H        4.07418905       2.72191332      -3.92176341
H        2.76260436       3.83777195      -4.16363618
H        0.66750334       3.56591901      -2.94783382
H       -0.75193497       2.14004198      -1.52779139
H        2.69789267      -0.18540198      -0.40216450
H        4.12395259       1.23529887      -1.82876158
H       10.15191188       3.72406542      -2.89850304
H       10.50070666      -0.64794469      -5.82729172
C       12.08401972       2.20105385      -3.87206267
C       13.26609085       2.38435322      -3.71861826
Br      15.17739989       2.68073280      -3.47051163
C       -5.77975319       0.60406200      -7.20399694
O       -7.20347850       0.64473810      -7.23446311
C       -7.86384342      -0.21888362      -6.39677862
C       -7.26672439      -1.11895554      -5.51603355
C       -8.06702761      -1.94729930      -4.71611449
C       -7.44469048      -2.90683081      -3.78083415
N       -6.15719191      -3.00050292      -3.67952611
N       -5.70674898      -3.92342496      -2.79037614
C       -4.37075763      -4.17335669      -2.58531660
O       -4.02888095      -5.04208005      -1.77973682
C       -3.36248898      -3.36199185      -3.38296258
C       -2.49108934      -2.49190754      -2.50829520
C       -1.22461715      -2.93445372      -2.10158977
C       -0.41930478      -2.12964209      -1.29304266
C       -0.88186199      -0.88186199      -0.88186199
C       -2.14397773      -0.43325859      -1.26675367
C       -2.94845364      -1.23715786      -2.07671004
C       -9.46061565      -1.88427761      -4.78827433
C      -10.05867476      -0.98249257      -5.66889298
C       -9.26336736      -0.15654053      -6.46581303
O       -9.84062359       0.73394505      -7.33488020
H       -5.40946339       1.33609770      -7.92819608
H       -5.40641444      -0.38046538      -7.50493532
H       -5.39889817       0.88840986      -6.21744729
H       -6.18682801      -1.19680418      -5.43371365
H       -8.12584260      -3.53695329      -3.17998147
H       -6.35480914      -4.48368226      -2.24621240
H       -3.83727995      -2.73598167      -4.14460417
H       -2.74470674      -4.07405469      -3.94525106
H       -0.86043841      -3.91351594      -2.40730183
H        0.56014752      -2.48772941      -0.98831651
H       -2.51036288       0.53646306      -0.94075536
H       -3.93530000      -0.88451422      -2.36819882
H      -10.07799313      -2.52852352      -4.16796371
H       -9.09818799       1.19262036      -7.77448605
C      -11.49650392      -0.93141786      -5.72921446
C      -12.70068584      -0.88864280      -5.77973369
Br     -14.64774616      -0.81947914      -5.86141902
C       -4.00620033       8.34370912       0.02977867
O       -3.58828959       9.55763878       0.64727515
C       -3.09328208       9.46241427       1.92380931
C       -2.95415709       8.28735523       2.66020116
C       -2.43256712       8.33690494       3.96096934
C       -2.28305236       7.09778171       4.75152136
N       -2.62584028       5.94882665       4.26255401
N       -2.44657635       4.88541291       5.08856082
C       -2.78976590       3.60128606       4.73837896
O       -2.62270475       2.68336714       5.54462593
C       -3.37933738       3.37213554       3.35597049
C       -2.50582202       2.49882775       2.48664230
C       -2.74943321       1.12171965       2.38950777
C       -1.94165474       0.31475731       1.58557749
C       -0.88186199       0.88186199       0.88186199
C       -0.61854247       2.24702169       0.97842584
C       -1.42732265       3.05421207       1.78078682
C       -2.04805513       9.55169904       4.53341342
C       -2.18599962      10.72799438       3.79606631
C       -2.70470802      10.68050779       2.50050512
O       -2.84446042      11.83072161       1.76637671
H       -4.38110554       8.58903456      -0.96857833
H       -4.82529925       7.87836883       0.58814706
H       -3.16484884       7.65308155      -0.08999478
H       -3.24355150       7.32510813       2.24868621
H       -1.87108449       7.19938465       5.77230822
H       -2.05935129       5.00653928       6.01881323
H       -3.58272202       4.30818699       2.82695678
H       -4.36292492       2.90535932       3.49572826
H       -3.56724800       0.66786461       2.94614357
H       -2.14558458      -0.75042830       1.52074213
H        0.21251947       2.69052119       0.43665347
H       -1.21267133       4.11780163       1.85754008
H       -1.64542089       9.58686354       5.54219592
H       -3.21972672      11.55207513       0.90825183
C       -1.78396509      11.97064039       4.40253076
C       -1.44726117      13.01135642       4.91044474
Br      -0.90283941      14.69410623       5.73169869
C        3.84181083      -8.41989184       0.11798545
O        3.41262388      -9.61290374       0.76767590
C        2.94517645      -9.48282610       2.05150311
C        2.84383101      -8.29102503       2.76685744
C        2.34746016      -8.30465927       4.07832197
C        2.23806571      -7.04755078       4.84673894
N        2.59345430      -5.91547002       4.32829662
N        2.45158923      -4.83271354       5.13624731
C        2.81279923      -3.56280372       4.75382797
O        2.67988782      -2.62611591       5.54469410
C        3.37901164      -3.37259601       3.35583576
C        2.50557586      -2.49920613       2.48651009
C        2.77412269      -1.12940611       2.35713184
C        1.96640510      -0.32236807       1.55321636
C        0.88186199      -0.88186199       0.88186199
C        0.59383716      -2.23933576       1.01081708
C        1.40252024      -3.04665249       1.81314882
C        1.95074194      -9.50008485       4.68234079
C        2.05086405     -10.69311685       3.96607940
C        2.54441807     -10.68138538       2.65991747
O        2.64692251     -11.84831915       1.94631709
H        4.19182030      -8.69216412      -0.88242265
H        4.68085762      -7.96016085       0.65079667
H        3.01192229      -7.71507276       0.00094057
H        3.14373748      -7.34299555       2.33061280
H        1.84466138      -7.12089139       5.87722460
H        2.08072704      -4.92783739       6.07613937
H        3.55341546      -4.32270512       2.84174520
H        4.37414820      -2.92291437       3.46694992
H        3.61162628      -0.68116415       2.88846575
H        2.18982217       0.73705686       1.46313309
H       -0.25640866      -2.67667047       0.49439337
H        1.16865523      -4.10403440       1.91532341
H        1.56772902      -9.50743459       5.69931675
H        3.01035663     -11.59408529       1.07561177
C        1.63676429     -11.91536708       4.60500487
C        1.28995573     -12.93900165       5.14010495
Br       0.72919563     -14.59413217       6.00531653
