162
Properties=species:S:1:pos:R:3 pbc="F F F"
C       11.13159985       1.01380931     -10.63854225
O       10.80619999       1.33852334      -9.29346071
C        9.60840567       1.95947608      -9.05884173
C        8.76008239       2.44269506     -10.06192600
C        7.55036551       3.06471525      -9.73197158
C        7.18172366       3.20707116      -8.39308655
C        5.89418094       3.85420186      -8.07458437
N        5.46638354       3.96475992      -6.85622032
N        4.26322458       4.58408909      -6.73206517
C        3.64034707       4.80530183      -5.52722277
O        2.58061297       5.43616049      -5.51693326
C        4.30608193       4.29210928      -4.25946851
C        3.41216840       3.41177935      -3.40846496
C        2.23000968       3.91643402      -2.84507673
C        1.41854417       3.10876613      -2.04479206
C        1.79160029       1.79160029      -1.79160029
C        2.96541711       1.27457471      -2.33501904
C        3.77159737       2.08192353      -3.14263825
C        8.01962037       2.74027753      -7.38033722
C        9.22810718       2.12297319      -7.71560631
Br      10.32758271       1.50805628      -6.29111025
H       11.29105684       1.91920851     -11.23290048
H       10.36584963       0.37348618     -11.08911987
H       12.07070668       0.45222976     -10.62902485
H        9.01293622       2.35382971     -11.11404037
H        6.90788218       3.42865456     -10.53041582
H        5.30922523       4.23701101      -8.93112875
H        3.78249191       4.95056211      -7.54598653
H        4.60996223       5.16479718      -3.66855084
H        5.23065761       3.75250558      -4.48701111
H        1.92688828       4.94551574      -3.03421402
H        0.50270729       3.51856154      -1.62743612
H        3.26271844       0.24876715      -2.13593628
H        4.68677230       1.66475097      -3.55824668
H        7.73428159       2.85620415      -6.33747165
C       -9.10380039      -1.28730782     -12.39284321
O       -9.08908305      -1.37494444     -10.97415655
C       -8.10575087      -2.12932153     -10.39165108
C       -7.21777281      -2.94953706     -11.09739358
C       -6.23954166      -3.68708333     -10.42042734
C       -6.14405523      -3.60785954      -9.02996661
C       -5.09417147      -4.38532601      -8.34346969
N       -4.91441330      -4.31079942      -7.06215106
N       -3.90662431      -5.08759646      -6.58515808
C       -3.55982666      -5.15590143      -5.25714358
O       -2.67299698      -5.94296384      -4.91774590
C       -4.31116239      -4.28289718      -4.26360014
C       -3.41272259      -3.41102062      -3.40866950
C       -2.47657199      -3.98210337      -2.53284507
C       -1.66398100      -3.17662852      -1.73149283
C       -1.79160029      -1.79160029      -1.79160029
C       -2.72056281      -1.20586892      -2.64857913
C       -3.52674016      -2.01347469      -3.45594430
C       -7.02708221      -2.80322930      -8.30992360
C       -8.00420177      -2.07154407      -8.99094083
Br      -9.17879544      -0.99345666      -7.95449714
H       -9.34437741      -2.25575255     -12.84303587
H       -8.15554585      -0.89626341     -12.77664642
H       -9.89235330      -0.58350823     -12.67609976
H       -7.26214954      -3.04025548     -12.17840127
H       -5.55995293      -4.31441534     -10.99258429
H       -4.46394114      -5.03308568      -8.98033817
H       -3.38064170      -5.69284691      -7.20555193
H       -4.88732319      -4.94760599      -3.60838108
H       -5.04963943      -3.65224246      -4.76829240
H       -2.36712929      -5.06439350      -2.47509525
H       -0.93938337      -3.64117590      -1.06814567
H       -2.82679195      -0.12565330      -2.69497662
H       -4.24946008      -1.54157336      -4.11873650
H       -6.95549215      -2.74606987      -7.22639536
C       -2.94717802      13.96092662       5.87584677
O       -2.58524517      12.63067529       6.22226359
C       -3.32649220      11.60892181       5.69130946
C       -4.51095790      11.78681569       4.96692986
C       -5.20583041      10.68371221       4.45750972
C       -4.71819595       9.39313104       4.67055438
C       -5.46358453       8.24938068       4.11000195
N       -5.03432806       7.03160894       4.22142679
N       -5.83510076       6.09397772       3.65030036
C       -5.56169726       4.74726984       3.66390458
O       -6.38682866       3.97183798       3.17504008
C       -4.27020799       4.27403117       4.31342055
C       -3.40988271       3.40939282       3.41313719
C       -3.87924474       2.17558621       2.93668947
C       -3.07673329       1.37166673       2.12370234
C       -1.79160029       1.79160029       1.79160029
C       -1.30452217       3.00924277       2.26124592
C       -2.11238699       3.81617815       3.06759402
C       -3.54473194       9.19687352       5.39862965
C       -2.85678516      10.30198090       5.90792061
Br      -1.26397586       9.97039101       6.89238236
H       -3.92323968      14.22379234       6.29613381
H       -2.93028383      14.10751361       4.79065824
H       -2.20401979      14.63430794       6.31363356
H       -4.92385731      12.77396115       4.78298784
H       -6.12203434      10.84942291       3.89549531
H       -6.40735928       8.48535219       3.58465352
H       -6.71016511       6.35752681       3.21134863
H       -4.54071072       3.69666280       5.20593673
H       -3.67568486       5.11823678       4.67625266
H       -4.88236254       1.83446874       3.18978677
H       -3.46532021       0.42479296       1.75859177
H       -0.30049683       3.33842058       2.00850446
H       -1.71730044       4.76367415       3.42879535
H       -3.16828823       8.19099109       5.56867806
C        3.22929994     -14.04922991       5.50542156
O        2.81037471     -12.74451457       5.88329476
C        3.53323675     -11.68092693       5.41255980
C        4.74661468     -11.79416661       4.72392216
C        5.41963314     -10.65161050       4.27580870
C        4.88096353      -9.38611064       4.51480720
C        5.60474264      -8.19950795       4.01871657
N        5.13028084      -7.00128459       4.15579835
N        5.91683922      -6.01835358       3.64418604
C        5.59686579      -4.68277567       3.69323021
O        6.41060552      -3.86388181       3.25921939
C        4.26889965      -4.27551663       4.31324343
C        3.40975736      -3.40950559       3.41314977
C        3.85191957      -2.14504913       2.99455173
C        3.04970870      -1.34077009       2.18162357
C        1.79160029      -1.79160029       1.79160029
C        1.33141177      -3.04026713       2.20333197
C        2.13929509      -3.84715128       3.00971279
C        3.67781833      -9.25428920       5.20812758
C        3.01179103     -10.39861164       5.65628401
Br       1.37657241     -10.15442861       6.59574821
H        4.19929478     -14.29375437       5.95011669
H        3.25364530     -14.15879677       4.41601361
H        2.49562292     -14.76169767       5.89464071
H        5.19920361     -12.76007391       4.52152877
H        6.35922669     -10.76721935       3.74050652
H        6.57307574      -8.38564207       3.51864718
H        6.81461241      -6.23730221       3.22712592
H        4.48944006      -3.72056905       5.23330115
H        3.69207435      -5.15107435       4.62702559
H        4.83368757      -1.77961921       3.29331126
H        3.41737089      -0.36944701       1.86188704
H        0.34831376      -3.39381363       1.90529448
H        1.76529248      -4.81917771       3.32529975
H        3.26146019      -8.26797251       5.39852468
C       -0.00445707       0.01189536      -1.78238275
H       -0.66409135       0.67374010      -2.43557963
H        0.65740317      -0.63156657      -2.45157240
C       -0.90989263      -0.90692880      -0.91072765
C        0.90977584       0.90977584      -0.90977584
C       -0.00465871       1.77757030       0.00794375
H       -0.66225468       2.44313916      -0.64384735
H        0.64322798       2.43503045       0.67728295
C       -1.78241447       0.00034974      -0.00472694
H       -2.45427497      -0.65498947       0.64260836
H       -2.43311707       0.67328779      -0.65473579
C       -0.91132561       0.90220522       0.91563759
C       -0.01476271      -0.02253852       1.78660255
H       -0.67934791      -0.69751639       2.42135241
H        0.63392994       0.61504881       2.47327442
C        0.01484550      -1.77751727      -0.01636693
H        0.67870853      -2.42144646      -0.68295456
H       -0.62264859      -2.45592969       0.64226336
C        1.78714474       0.01002794       0.00389507
H        2.44202412       0.67113390       0.66197326
H        2.45385902      -0.65136977      -0.64189061
C        0.91606151      -0.90478549       0.90901405
