141
Properties=species:S:1:pos:R:3 pbc="F F F"
C        0.00000000       0.00000000       0.00000000
C       10.22169582       0.10390529      -9.72863823
O        9.89629597       0.42861932      -8.38355669
C        8.69850164       1.04957206      -8.14893770
C        7.85017837       1.53279103      -9.15202197
C        6.64046149       2.15481123      -8.82206755
C        6.27181963       2.29716714      -7.48318253
C        4.98427691       2.94429784      -7.16468034
N        4.55647952       3.05485589      -5.94631630
N        3.35332056       3.67418506      -5.82216115
C        2.73044304       3.89539780      -4.61731875
O        1.67070894       4.52625647      -4.60702924
C        3.39617790       3.38220526      -3.34956448
C        2.50226438       2.50187533      -2.49856094
C        1.32010565       3.00653000      -1.93517271
C        0.50864014       2.19886211      -1.13488804
C        0.88169627       0.88169627      -0.88169627
C        2.05551309       0.36467068      -1.42511502
C        2.86169335       1.17201951      -2.23273422
C        7.10971634       1.83037350      -6.47043319
C        8.31820315       1.21306917      -6.80570228
Br       9.41767868       0.59815225      -5.38120623
H       10.38115282       1.00930449     -10.32299646
H        9.45594561      -0.53641784     -10.17921584
H       11.16080266      -0.45767426      -9.71912082
H        8.10303219       1.44392569     -10.20413634
H        5.99797815       2.51875054      -9.62051180
H        4.39932120       3.32710699      -8.02122473
H        2.87258789       4.04065808      -6.63608251
H        3.70005821       4.25489316      -2.75864682
H        4.32075358       2.84260155      -3.57710708
H        1.01698426       4.03561172      -2.12431000
H       -0.40719674       2.60865752      -0.71753209
H        2.35281441      -0.66113687      -1.22603225
H        3.77686827       0.75484694      -2.64834266
H        6.82437756       1.94630012      -5.42756763
C      -11.65240072      -0.45482969      -7.94700893
O      -11.04853602      -0.91475328      -6.74518268
C       -9.74872601      -1.34139849      -6.80688690
C       -9.02908512      -1.51036542      -7.99554083
C       -7.70060405      -1.95023873      -7.96649749
C       -7.08314337      -2.22419373      -6.74483219
C       -5.67723072      -2.67296374      -6.74306063
N       -5.02838814      -2.88741143      -5.64185215
N       -3.74320274      -3.29495050      -5.81151354
C       -2.89041490      -3.58038351      -4.77236120
O       -1.76320091      -4.00749766      -5.03329609
C       -3.39000423      -3.38958210      -3.34836131
C       -2.50166568      -2.50244168      -2.49859328
C       -1.17618283      -2.86807836      -2.21754716
C       -0.36613122      -2.05862883      -1.41763024
C       -0.88169627      -0.88169627      -0.88169627
C       -2.19737877      -0.50554368      -1.14237633
C       -3.00363899      -1.31264461      -1.95016348
C       -7.78846366      -2.07080290      -5.55125649
C       -9.11598364      -1.63450066      -5.58649030
Br     -10.02489575      -1.44523392      -3.92690748
H      -11.77708968      -1.27455386      -8.66181023
H      -11.08363414       0.37143778      -8.38654725
H      -12.64837962      -0.07666840      -7.69720120
H       -9.47502116      -1.31092366      -8.96514941
H       -7.16275918      -2.07041798      -8.90406333
H       -5.20281569      -2.81298505      -7.73185218
H       -3.36504695      -3.44396998      -6.74031155
H       -3.44977698      -4.38096612      -2.88285508
H       -4.41061203      -2.99464591      -3.33520428
H       -0.76050088      -3.78683158      -2.62957351
H        0.66017629      -2.35734194      -1.22182723
H       -2.60514412       0.40956527      -0.72213095
H       -4.03009957      -1.00690104      -2.14305726
H       -7.30851220      -2.28941386      -4.60031925
C       -1.72218658      12.91717672       5.41487604
O       -1.42774377      11.56048183       5.72024637
C       -2.18633137      10.59193823       5.11874180
C       -3.33198448      10.84699456       4.35601234
C       -4.04837880       9.79447139       3.77449008
C       -3.62137582       8.47748018       3.95331330
C       -4.38770544       7.38848046       3.31706920
N       -4.01191834       6.15060507       3.39512830
N       -4.82495142       5.27008791       2.75462745
C       -4.60583419       3.91377732       2.72354808
O       -5.44015795       3.19294368       2.17089302
C       -3.36193286       3.36241130       3.40360348
C       -2.50013214       2.49936084       2.50320767
C       -2.99791340       1.30575347       1.95814148
C       -2.19502611       0.50225074       1.14511344
C       -0.88169627       0.88169627       0.88169627
C       -0.36658712       2.05870518       1.42000649
C       -1.17442622       2.86570208       2.22631877
C       -2.48758519       8.20439720       4.71854065
C       -1.77802070       9.25921141       5.29974249
Br      -0.24148538       8.82359857       6.33195321
H       -2.70356898      13.20319470       5.80669008
H       -1.65481595      13.10576154       4.33816612
H       -0.97163542      13.54152410       5.90908970
H       -3.69757807      11.85681530       4.19670085
H       -4.93337875      10.01988970       3.18397204
H       -5.29896195       7.68373005       2.76496092
H       -5.67007778       5.58662142       2.29262927
H       -3.69160375       2.76181846       4.26017598
H       -2.74992810       4.16639258       3.82414154
H       -4.02331561       0.99650332       2.15708703
H       -2.60539882      -0.41262456       0.72621861
H        0.65923413       2.35598369       1.22096023
H       -0.75737883       3.78108550       2.64159353
H       -2.15855672       7.17792155       4.86176704
C        2.13085837     -13.08333539       4.84004558
O        1.74969103     -11.76137667       5.19740427
C        2.48511330     -10.72518971       4.68670839
C        3.67972903     -10.88121189       3.97405045
C        4.36759972      -9.76446232       3.48527822
C        3.86272449      -8.48206363       3.70738118
C        4.60121876      -7.32350742       3.16852890
N        4.15671121      -6.11207190       3.28886860
N        4.95307883      -5.15885472       2.73773322
C        4.66403223      -3.81559628       2.76353108
O        5.48568764      -3.02522781       2.29307920
C        3.35985559      -3.36462477       3.40346728
C        2.49993595      -2.49952637       2.50323832
C        2.96044337      -1.25504085       2.04632413
C        2.15803507      -0.45100080       1.23335442
C        0.88169627      -0.88169627       0.88169627
C        0.40336627      -2.11014327       1.33178925
C        1.21123766      -2.91706129       2.13814814
C        2.67885519      -8.30759744       4.42407040
C        1.99793390      -9.42627023       4.91277046
Br       0.39029261      -9.12422376       5.88252079
H        3.10503236     -13.33988820       5.26853321
H        2.12802294     -13.21758629       3.75313438
H        1.39057108     -13.77014377       5.26153437
H        4.10604957     -11.86140190       3.78364274
H        5.29199818      -9.91323168       2.93201062
H        5.55357650      -7.54263682       2.65143960
H        5.83606852      -5.40733701       2.30592295
H        3.61349616      -2.79453797       4.30556406
H        2.77100720      -4.21967713       3.74977789
H        3.95661290      -0.90545423       2.31483884
H        2.53981678       0.50438565       0.88356175
H       -0.59385237      -2.44780624       1.06375593
H        0.82300890      -3.87309890       2.48395007
H        2.28892792      -7.30809732       4.60122007
