174
Properties=species:S:1:pos:R:3 pbc="F F F"
O       10.95549196       8.60280073      -5.06133744
C        9.94088336       8.08047480      -5.52841409
N        9.04590624       7.45057240      -4.69584244
N        7.91647240       6.84678617      -5.15614193
C        7.22745984       6.20018898      -4.26937689
C        6.02085272       5.52301981      -4.64265848
C        5.34660942       5.42964773      -5.84244350
C        4.21726801       4.61073603      -5.60580040
C        4.26062872       4.24299597      -4.27453782
O        5.35983895       4.80802337      -3.68657286
C        3.41783524       3.41078574      -3.41809137
C        2.29033349       2.76054636      -3.94516075
C        1.48021503       1.95435595      -3.13794142
C        1.79126969       1.79126969      -1.79126969
C        2.90248577       2.42677092      -1.24525609
C        3.70989957       3.23176075      -2.05637319
C        9.64256684       8.08205889      -7.01763104
C       10.18681141       6.86342853      -7.72678516
C        9.31875279       5.95183640      -8.34442605
C        9.82248965       4.82710172      -9.00182889
C       11.19776668       4.60786180      -9.04153512
Br      11.87978395       3.08393635      -9.92840673
C       12.07371591       5.50286127      -8.43181537
C       11.56900674       6.62909513      -7.77855456
H        9.28796199       7.43012457      -3.71030236
H        7.53728022       6.13737884      -3.21090473
H        5.64242614       5.89625156      -6.77172869
H        3.46621985       4.32154426      -6.32696105
H        2.02621525       2.86872104      -4.99438356
H        0.61446829       1.46045951      -3.57146848
H        3.15248142       2.30416247      -0.19469743
H        4.57479667       3.71803128      -1.60981477
H       10.09452137       8.98161201      -7.45460536
H        8.56491303       8.19090830      -7.18563055
H        8.24303954       6.11027701      -8.31266832
H        9.13623434       4.13066394      -9.47568382
H       13.14701249       5.33512113      -8.45696966
H       12.26139159       7.32248199      -7.30286105
O      -10.79932883      -8.84951318      -4.97078813
C       -9.82805663      -8.26534355      -5.45637206
N       -8.92484991      -7.63240410      -4.63506707
N       -7.84201692      -6.96226888      -5.11511470
C       -7.14277134      -6.32373433      -4.23052003
C       -5.98218658      -5.58061458      -4.62372986
C       -5.36447364      -5.40909679      -5.84513022
C       -4.26067258      -4.55290050      -5.62023135
C       -4.26195130      -4.24245480      -4.27375641
O       -5.31072969      -4.87785611      -3.66584938
C       -3.41813632      -3.41078768      -3.41778835
C       -2.34200938      -2.69161677      -3.96241445
C       -1.53185371      -1.88530010      -3.15535859
C       -1.79126969      -1.79126969      -1.79126969
C       -2.85093318      -2.49580911      -1.22777050
C       -3.65860568      -3.30065083      -2.03877701
C       -9.59412029      -8.19283842      -6.95529807
C      -10.21798670      -6.97054100      -7.58849741
C       -9.41548608      -5.99788803      -8.20164112
C       -9.99283139      -4.86971117      -8.78887771
C      -11.37640121      -4.70825242      -8.76250996
Br     -12.15798740      -3.17980008      -9.55433954
C      -12.18780125      -5.66435479      -8.15623651
C      -11.60960144      -6.79381600      -7.57323899
H       -9.12501922      -7.66293740      -3.64043230
H       -7.40919837      -6.31788996      -3.15847545
H       -5.68045092      -5.84933064      -6.78062482
H       -3.55380616      -4.20230884      -6.35861015
H       -2.11893986      -2.74508758      -5.02529241
H       -0.70657013      -1.33727946      -3.60254669
H       -3.06044173      -2.42737889      -0.16352070
H       -4.48279562      -3.84155885      -1.57828825
H      -10.02701278      -9.09221603      -7.41150993
H       -8.52110453      -8.24832875      -7.17201860
H       -8.33379312      -6.11118530      -8.22100646
H       -9.35678730      -4.12555183      -9.26024298
H      -13.26718110      -5.54194246      -8.12997972
H      -12.25181086      -7.53526856      -7.09965520
O       -6.06617026       6.96002291      11.59343697
C       -6.20111642       6.98068938      10.36796644
N       -5.55057077       6.05319691       9.58855340
N       -5.65248760       6.03532218       8.23159073
C       -4.89678416       5.17445541       7.62578614
C       -4.91955442       5.07032906       6.19664753
C       -5.66575736       5.71850779       5.23443550
C       -5.24010821       5.20859769       3.98509854
C       -4.25356745       4.27727994       4.24731511
O       -4.06495182       4.18942040       5.60006296
C       -3.41231046       3.42023683       3.41416507
C       -3.51036636       3.47138160       2.01429263
C       -2.70487561       2.66236518       1.20527161
C       -1.79126969       1.79126969       1.79126969
C       -1.67681553       1.72122442       3.17647284
C       -2.48417090       2.53236421       3.98149840
C       -7.05379374       8.02293733       9.66552570
C       -6.26781801       9.24866003       9.26054707
C       -6.12151718       9.58601847       7.90747959
C       -5.39712812      10.72034327       7.53394888
C       -4.81303550      11.52093758       8.51319051
Br      -3.82973969      13.05450539       8.00788194
C       -4.94760157      11.19912146       9.86166952
C       -5.67560577      10.06715724      10.23389341
H       -4.95681492       5.39223014      10.07934386
H       -4.21078891       4.50269142       8.17208346
H       -6.42121424       6.46929949       5.41989266
H       -5.60937986       5.49470107       3.01064423
H       -4.21380559       4.14486981       1.53064444
H       -2.79916668       2.72307777       0.12415182
H       -0.96551648       1.04396831       3.64185653
H       -2.37738988       2.46314057       5.06211227
H       -7.85719043       8.32343502      10.35011328
H       -7.56239770       7.57494044       8.80411374
H       -6.56756126       8.96331201       7.13511161
H       -5.29355964      10.96792161       6.48110086
H       -4.49148689      11.81819677      10.62941962
H       -5.77388083       9.82217623      11.29067757
O        6.61487974      -6.37502207      11.62972832
C        6.60379205      -6.53838350      10.40759670
N        5.96705395      -5.62765591       9.59761122
N        5.91208083      -5.76277028       8.24454940
C        5.18469899      -4.88761768       7.62470904
C        5.05212635      -4.93584314       6.19856152
C        5.61021489      -5.76266340       5.24582236
C        5.09771209      -5.33933433       3.99675801
C        4.25037883      -4.27763994       4.25014373
O        4.23020419      -4.02845639       5.59577460
C        3.41170245      -3.41994746       3.41506245
C        3.34076626      -3.62724768       2.02802666
C        2.53523194      -2.81864096       1.21863950
C        1.79126969      -1.79126969       1.79126969
C        1.84626821      -1.56491993       3.16332465
C        2.65296009      -2.37625553       3.96881790
C        7.25627699      -7.73984075       9.74613903
C        6.30557775      -8.90143905       9.57000831
C        5.96897205      -9.35823591       8.28780728
C        5.09225108     -10.43343379       8.12573539
C        4.54579361     -11.05475222       9.24661776
Br       3.35656277     -12.50795636       9.02760790
C        4.86866087     -10.61242252      10.52730915
C        5.74855601      -9.54011175      10.68798867
H        5.50616228      -4.85486260      10.06736404
H        4.64025780      -4.08768746       8.15761853
H        6.29999645      -6.57271529       5.43769465
H        5.31965577      -5.76601937       3.02905001
H        3.90953112      -4.42439873       1.55539000
H        2.49658071      -3.00184787       0.14796769
H        1.26801084      -0.76503173       3.61829875
H        2.68009907      -2.18324427       5.03929937
H        8.09811731      -8.05881628      10.37380514
H        7.70522092      -7.44581604       8.79041492
H        6.38460124      -8.87512397       7.40625967
H        4.84202772     -10.77532382       7.12523057
H        4.44292516     -11.09125836      11.40491976
H        5.99373764      -9.19976412      11.69323287
C       -0.00445707       0.01189536      -1.78238275
H       -0.66409135       0.67374010      -2.43557963
H        0.65740317      -0.63156657      -2.45157240
C       -0.90989263      -0.90692880      -0.91072765
C        0.90977584       0.90977584      -0.90977584
C       -0.00465871       1.77757030       0.00794375
H       -0.66225468       2.44313916      -0.64384735
H        0.64322798       2.43503045       0.67728295
C       -1.78241447       0.00034974      -0.00472694
H       -2.45427497      -0.65498947       0.64260836
H       -2.43311707       0.67328779      -0.65473579
C       -0.91132561       0.90220522       0.91563759
C       -0.01476271      -0.02253852       1.78660255
H       -0.67934791      -0.69751639       2.42135241
H        0.63392994       0.61504881       2.47327442
C        0.01484550      -1.77751727      -0.01636693
H        0.67870853      -2.42144646      -0.68295456
H       -0.62264859      -2.45592969       0.64226336
C        1.78714474       0.01002794       0.00389507
H        2.44202412       0.67113390       0.66197326
H        2.45385902      -0.65136977      -0.64189061
C        0.91606151      -0.90478549       0.90901405
