174
Properties=species:S:1:pos:R:3 pbc="F F F"
C        3.55520329       2.55892138      -6.20345982
O        2.77204357       1.82980456      -5.26877280
C        2.74469655       2.27598590      -3.97170774
C        1.94045229       1.48482630      -3.14383141
C        1.79318667       1.79318667      -1.79318667
C        2.44368387       2.89279290      -1.23931447
C        3.26484531       3.69969601      -2.03696372
C        3.93358328       4.85025536      -1.38102596
H        3.50535133       5.18310869      -0.43914705
N        5.03049072       5.36040482      -1.95525246
N        5.58166027       6.42093775      -1.20458351
C        6.80879778       6.97188522      -1.49182390
O        7.27363281       7.86536090      -0.77555033
C        7.57237276       6.45810316      -2.70560839
C        8.61563914       5.41796254      -2.35788849
C        9.91639137       5.80039502      -2.00450866
C       10.87142464       4.83686187      -1.67275474
C       10.52490594       3.48678859      -1.68430096
C        9.23278581       3.09065849      -2.01794420
C        8.28054442       4.05606267      -2.35147612
C        3.40362641       3.38077980      -3.41211432
O        4.20090014       4.18306520      -4.19578543
H        3.45330406       2.06292172      -7.17294467
H        4.61765503       2.53244850      -5.94141420
H        3.18128350       3.58018411      -6.32672004
H        1.43209900       0.62492318      -3.56899237
H        2.33017383       3.12069763      -0.18318356
H        5.10786853       6.73960029      -0.36962868
H        8.06047358       7.32224108      -3.17570089
H        6.89816411       6.07518495      -3.47955185
H       10.18055079       6.85491112      -1.97319803
H       11.87243241       5.15173079      -1.39751632
H        8.94470409       2.04416876      -2.01272380
H        7.26199908       3.74758116      -2.58779749
H        4.60521313       4.81818908      -3.55143166
C       11.50926676       2.49404895      -1.33918969
C       12.33366895       1.66262951      -1.05015900
Br      13.66665756       0.31829459      -0.58282082
C       -2.45035930      -6.15531952      -3.71190568
O       -1.72745953      -5.22325815      -2.91990324
C       -2.22569895      -3.94909396      -2.81759727
C       -1.43550051      -3.12182963      -2.01177986
C       -1.79318667      -1.79318667      -1.79318667
C       -2.94217179      -1.26103460      -2.37258484
C       -3.75008071      -2.05810641      -3.19331791
C       -4.95497356      -1.42553001      -3.78436103
H       -5.30785203      -0.51768567      -3.30206936
N       -5.48797229      -1.97518587      -4.88298985
N       -6.60183692      -1.24903468      -5.35630994
C       -7.19318437      -1.50857240      -6.57075013
O       -8.13510668      -0.81308649      -6.96635087
C       -6.66295856      -2.66598336      -7.40714238
C       -5.68457338      -2.23017600      -8.47674079
C       -6.13761268      -1.83985959      -9.74382279
C       -5.23119293      -1.42699837     -10.72284995
C       -3.86801899      -1.39424686     -10.43372964
C       -3.40250495      -1.76390700      -9.17497655
C       -4.31083966      -2.17850801      -8.19873554
C       -3.38046753      -3.41110524      -3.40494775
O       -4.18331075      -4.19501903      -4.20142099
H       -1.91042327      -7.10571821      -3.67302897
H       -2.48106487      -5.84831862      -4.76213424
H       -3.44836749      -6.33835743      -3.30146272
H       -0.53732975      -3.53000545      -1.55867934
H       -3.20874210      -0.22146457      -2.20384835
H       -6.93411257      -0.44920185      -4.83378308
H       -7.52716415      -3.15246351      -7.87878789
H       -6.21915681      -3.44996612      -6.78377798
H       -7.20300783      -1.84346043      -9.96219168
H       -5.60049791      -1.12423537     -11.69694624
H       -2.34560365      -1.72518757      -8.93080543
H       -3.94876968      -2.44343335      -7.20517471
H       -4.86172073      -3.56260822      -4.55050492
C       -2.93427803      -0.96555999     -11.44266739
C       -2.15226997      -0.60653473     -12.28765275
Br      -0.88782909      -0.02602127     -13.65392262
C       -6.22491337       3.47095049       2.62172064
O       -5.28906686       2.69254188       1.88901218
C       -3.98181098       2.70549282       2.30508638
C       -3.15364686       1.90209902       1.51336412
C       -1.79318667       1.79318667       1.79318667
C       -1.22964924       2.48190668       2.86423531
C       -2.02763871       3.30327297       3.67059335
C       -1.36134933       4.01376625       4.78974903
H       -0.40226594       3.61522593       5.11011519
N       -1.94933599       5.10888482       5.28792720
N       -1.18767044       5.70193262       6.31757848
C       -1.49095066       6.93476208       6.84679416
O       -0.76546944       7.43680441       7.71227019
C       -2.73383259       7.65796494       6.34428678
C       -2.43471981       8.68420082       5.27256955
C       -2.10332740      10.00135836       5.61660929
C       -1.81633793      10.94084312       4.62386020
C       -1.85074218      10.56250599       3.28274731
C       -2.16292623       9.25410720       2.92435507
C       -2.45171540       8.31741596       3.91895185
C       -3.41263451       3.40289431       3.38099169
O       -4.19619786       4.20059832       4.18295459
H       -7.20287176       3.33517636       2.15112233
H       -5.98859583       4.53822493       2.56469696
H       -6.31585782       3.11841152       3.65391831
H       -3.58637848       1.36403804       0.67559803
H       -0.16618540       2.39807522       3.06979440
H       -0.33470820       5.25506747       6.62732183
H       -3.19529730       8.15532010       7.20779815
H       -3.50030269       6.95734074       5.99525748
H       -2.05402204      10.29088610       6.66375180
H       -1.55754959      11.95503484       4.90909509
H       -2.17497352       8.94169790       1.88492523
H       -2.67104869       7.28674024       3.63958881
H       -3.54710901       4.63442543       4.79329943
C       -1.55176294      11.53092263       2.25981983
C       -1.30136783      12.34197156       1.40311806
Br      -0.89650012      13.65336909       0.01790377
C        5.83702282      -4.38062895       2.09993273
O        4.92259260      -3.55080732       1.39722100
C        3.80022435      -3.12849966       2.06366617
C        2.97662315      -2.31608661       1.27640023
C        1.79318667      -1.79318667       1.79318667
C        1.40500859      -2.06905991       3.10172273
C        2.20037415      -2.88731619       3.91381469
C        1.72377012      -3.14633457       5.29475992
H        0.98905564      -2.44928914       5.68926229
N        2.18257088      -4.23031241       5.93326472
N        1.61673546      -4.37196256       7.21848352
C        1.78722984      -5.50330201       7.98197506
O        1.23062356      -5.60300653       9.08091395
C        2.67317779      -6.61932888       7.44357764
C        1.89320269      -7.72810492       6.77018257
C        1.39947953      -8.80824124       7.51357429
C        0.66995307      -9.82219736       6.88889082
C        0.42372467      -9.75362671       5.51864410
C        0.89372726      -8.67959872       4.76806252
C        1.62485991      -7.66836778       5.39485553
C        3.40622969      -3.41003469       3.38025615
O        4.19175766      -4.20308890       4.18490421
H        6.66040791      -4.61095069       1.41781185
H        5.37785551      -5.33412827       2.37953395
H        6.27068609      -3.85875166       2.95874989
H        3.27252850      -2.09876579       0.25472025
H        0.47614333      -1.66427529       3.49363639
H        0.98911207      -3.65989610       7.56808933
H        3.23425992      -7.03112028       8.29303535
H        3.44711987      -6.23641755       6.76936350
H        1.57183070      -8.85027160       8.58655764
H        0.29179898     -10.64870200       7.48117854
H        0.69310976      -8.60450755       3.70397933
H        1.97086150      -6.81462123       4.81189501
H        3.65327433      -4.31188770       5.00967184
C       -0.33112973     -10.79788702       4.87574811
C       -0.96332028     -11.67245502       4.33732272
Br      -1.98551894     -13.08655752       3.46673440
C       -0.00445707       0.01189536      -1.78238275
H       -0.66409135       0.67374010      -2.43557963
H        0.65740317      -0.63156657      -2.45157240
C       -0.90989263      -0.90692880      -0.91072765
C        0.90977584       0.90977584      -0.90977584
C       -0.00465871       1.77757030       0.00794375
H       -0.66225468       2.44313916      -0.64384735
H        0.64322798       2.43503045       0.67728295
C       -1.78241447       0.00034974      -0.00472694
H       -2.45427497      -0.65498947       0.64260836
H       -2.43311707       0.67328779      -0.65473579
C       -0.91132561       0.90220522       0.91563759
C       -0.01476271      -0.02253852       1.78660255
H       -0.67934791      -0.69751639       2.42135241
H        0.63392994       0.61504881       2.47327442
C        0.01484550      -1.77751727      -0.01636693
H        0.67870853      -2.42144646      -0.68295456
H       -0.62264859      -2.45592969       0.64226336
C        1.78714474       0.01002794       0.00389507
H        2.44202412       0.67113390       0.66197326
H        2.45385902      -0.65136977      -0.64189061
C        0.91606151      -0.90478549       0.90901405
