137
Properties=species:S:1:pos:R:3 pbc="F F F"
C        0.00000000       0.00000000       0.00000000
O       -0.83846630       1.71828904      -8.43192967
C       -0.84459449       1.39117972      -7.24220942
N        0.14859882       1.85703554      -6.41159065
N        0.22693404       1.56342750      -5.08608740
C        1.22417323       2.11428117      -4.46419038
C        1.45061037       1.88568181      -3.01995557
C        2.55181908       2.51672824      -2.43131886
C        2.81045633       2.32466297      -1.07437218
Cl       4.16701848       3.09893156      -0.35256542
C        1.98593385       1.51370578      -0.29819606
C        0.88620897       0.88620897      -0.88620897
C        0.61202644       1.06773478      -2.24661046
O       -0.47567790       0.43463713      -2.78787858
C       -1.92351231       0.50320992      -6.64793217
C       -1.95262968      -0.87620135      -7.26156785
C       -1.12658143      -1.89384613      -6.76254436
C       -1.16067205      -3.17196868      -7.32578633
C       -2.01655257      -3.43501820      -8.39356472
C       -2.83234914      -2.43062367      -8.90890494
C       -2.79664777      -1.15298115      -8.34651928
H        0.84314747       2.45025864      -6.85610947
H        1.94230507       2.77332141      -4.98659973
H        3.21015101       3.15365769      -3.01708298
H        2.20003766       1.37171680       0.75828859
H       -0.52801577       0.67083846      -3.73795977
H       -2.88453507       1.00767621      -6.80901445
H       -1.83258700       0.40739086      -5.56260090
H       -0.45525602      -1.69951023      -5.92821921
H       -0.51969473      -3.95250266      -6.92460032
H       -3.49650405      -2.62869095      -9.74585946
H       -3.43039403      -0.37211329      -8.76243421
C       -2.05796156      -4.75445602      -8.96886387
C       -2.09264159      -5.85948520      -9.45067692
Br      -2.14871627      -7.64622392     -10.22972786
O        1.44058140      -8.10301169      -2.64932211
C        1.36526570      -6.95778187      -2.19627848
N        0.27401277      -6.18073022      -2.51050756
N        0.09172954      -4.91201075      -2.05616774
C       -1.01081452      -4.34763872      -2.44419154
C       -1.35056643      -2.96530447      -2.04037685
C       -2.55808889      -2.43474387      -2.50703341
C       -2.91736043      -1.13277078      -2.15936027
Cl      -4.40129890      -0.48054600      -2.73667056
C       -2.08989186      -0.35498530      -1.35295853
C       -0.88620897      -0.88620897      -0.88620897
C       -0.50996165      -2.19085543      -1.22555461
O        0.67906917      -2.67677185      -0.74913513
C        2.42764283      -6.37254032      -1.28273230
C        3.77895902      -6.26389721      -1.94779864
C        4.10595492      -5.13499922      -2.71307249
C        5.35972176      -5.03196752      -3.32089985
C        6.28833110      -6.06001626      -3.17030879
C        5.97257965      -7.19348829      -2.42502350
C        4.71873120      -7.29654097      -1.81908058
H       -0.40964365      -6.61929893      -3.12057301
H       -1.73737376      -4.87465171      -3.09020074
H       -3.21997030      -3.02244697      -3.13847441
H       -2.38177034       0.65901330      -1.09070883
H        0.78639352      -3.59681552      -1.07036046
H        2.49253879      -7.02315062      -0.40154376
H        2.14492445      -5.39198003      -0.89034918
H        3.38858467      -4.32582702      -2.83621060
H        5.60168107      -4.14845889      -3.90562511
H        6.69057292      -8.00103247      -2.31020490
H        4.47754262      -8.19040737      -1.24706214
C        7.58365133      -5.95034016      -3.78975746
C        8.66848202      -5.85848642      -4.30854572
Br      10.42256149      -5.70996669      -5.14738247
O        2.03845453       7.43352396       3.91668298
C        1.88741881       6.37456610       3.30164736
N        0.67580646       5.72567481       3.36735667
N        0.40469902       4.56056053       2.72058744
C       -0.80224857       4.11314361       2.88725260
C       -1.24910209       2.85229808       2.25484759
C       -2.56606915       2.44317510       2.49062192
C       -3.03011083       1.25712757       1.92225308
Cl      -4.64911064       0.75367232       2.21573250
C       -2.19949824       0.47588440       1.12245305
C       -0.88620897       0.88620897       0.88620897
C       -0.40399249       2.07352352       1.44885566
O        0.89069574       2.44257838       1.19495516
C        2.98749452       5.76268523       2.45243908
C        4.20846083       5.38468719       3.25651047
C        4.28374370       4.13574457       3.89011592
C        5.41759137       3.78397447       4.62676250
C        6.47726838       4.68219154       4.73707079
C        6.41078975       5.93159613       4.12512575
C        5.27660007       6.28316693       3.39032349
H       -0.02761543       6.17757627       3.94432388
H       -1.54200540       4.65354523       3.50667558
H       -3.23278681       3.03591626       3.11218862
H       -2.57395783      -0.44718217       0.68669022
H        1.06402679       3.29199168       1.65281757
H        3.25477334       6.50097143       1.68595750
H        2.64439909       4.88716276       1.89464108
H        3.46232677       3.42629750       3.80948223
H        5.46478991       2.81021725       5.10697560
H        7.23145157       6.63833487       4.21378114
H        5.22964753       7.26543206       2.92414236
C        7.64949443       4.31663630       5.48930443
C        8.63123375       4.01048378       6.11930009
Br      10.21862320       3.51546105       7.13794981
O       -2.08432826      -4.04376869       7.35231198
C       -1.92993559      -3.41943318       6.29929706
N       -0.69813818      -3.42922308       5.68614011
N       -0.42706986      -2.78256221       4.52095660
C        0.78781248      -2.92724545       4.08758685
C        1.24030470      -2.27921931       2.83672374
C        2.56751716      -2.48661045       2.44573856
C        3.04190519      -1.88957874       1.27800755
Cl       4.67535566      -2.14302492       0.80013488
C        2.21094720      -1.09073557       0.49615292
C        0.88620897      -0.88620897       0.88620897
C        0.39365961      -1.47748125       2.05523083
O       -0.91153828      -1.25269605       2.40568004
C       -3.05868165      -2.64965147       5.63665997
C       -3.58225674      -1.52171372       6.49327984
C       -2.97303119      -0.25899977       6.45614821
C       -3.46374186       0.78606027       7.24294773
C       -4.56150538       0.57023948       8.07373882
C       -5.16801958      -0.68223280       8.13171891
C       -4.67609972      -1.72673477       7.34625529
H        0.02136551      -3.96163827       6.16651180
H        1.53088218      -3.53749065       4.63385338
H        3.23523067      -3.10541828       3.04024272
H        2.59429328      -0.63035414      -0.41118156
H       -1.09536718      -1.73964102       3.23650862
H       -3.86168504      -3.36730781       5.42653282
H       -2.77290144      -2.25063597       4.65967022
H       -2.11585107      -0.07928997       5.81001406
H       -2.98566896       1.76102640       7.19909830
H       -6.01999668      -0.85764209       8.78301903
H       -5.15034415      -2.70444523       7.40582581
C       -5.07264789       1.64943045       8.87852463
C       -5.50072975       2.55325288       9.55253275
Br      -6.19290190       4.01465730      10.64234686
