142
Properties=species:S:1:pos:R:3 pbc="F F F"
C        1.79310713       1.79310713      -1.79310713
C        1.70434895       3.17984611      -1.68380133
C        2.51499589       3.98406749      -2.48203236
C        3.41144037       3.39665047      -3.38020500
C        3.50860774       2.00281658      -3.49727178
C        4.50418708       1.43699585      -4.42871857
H        5.20872540       2.15099675      -4.84593150
N        4.57395918       0.10815258      -4.60635559
N        5.77215784      -0.24700671      -5.29127008
C        6.22238107      -1.54112106      -5.47842327
O        7.28033630      -1.73927552      -6.07853702
C        5.47593616      -2.70043600      -4.91146231
C        5.05424583      -2.65313964      -3.57204941
C        4.40534951      -3.73848857      -2.97845501
C        4.20207298      -4.90525853      -3.70719685
C        4.63841203      -4.97955882      -5.03055802
C        5.27104322      -3.88191012      -5.63777633
C        2.68454386       1.20540652      -2.69159672
H        1.01386379       3.63808339      -0.98321244
H        2.45847000       5.06544739      -2.40670017
H        4.04476413       4.03308127      -3.99323681
H        6.34858663       0.49307808      -5.66773159
H        5.22600726      -1.74929462      -2.98983982
H        4.06183159      -3.65969625      -1.95098924
H        3.70173088      -5.75308894      -3.24886905
H        4.47714077      -5.89772856      -5.58894057
H        2.75493945       0.12362481      -2.76703013
C        5.64441615      -4.05133426      -7.01817052
C        5.95711598      -4.19322697      -8.17425065
Br       6.46272515      -4.42265548     -10.04353445
C       -1.79310713      -1.79310713      -1.79310713
C       -1.89355854      -1.51848057      -3.15595728
C       -2.69110017      -2.32816228      -3.96183328
C       -3.37866581      -3.40884158      -3.40078845
C       -3.28378678      -3.69370777      -2.03120155
C       -3.99480303      -4.87378988      -1.50130859
H       -4.41850683      -5.53638030      -2.25076651
N       -3.97202872      -5.13228877      -0.18414986
N       -4.44570142      -6.45025354       0.07953375
C       -4.39002762      -7.07943127       1.30977561
O       -4.82008896      -8.22816360       1.42865476
C       -3.76126009      -6.40965040       2.48394802
C       -2.50484441      -5.79957385       2.33126266
C       -1.84832180      -5.21264287       3.41564872
C       -2.42363441      -5.26109704       4.68072016
C       -3.65863747      -5.88663025       4.85585649
C       -4.33230213      -6.45799581       3.76338852
C       -2.48156472      -2.86894855      -1.23103383
H       -1.35616686      -0.68412715      -3.59486560
H       -2.77758612      -2.12787435      -5.02515710
H       -3.99250210      -4.03890044      -4.03967966
H       -4.84897032      -6.97801248      -0.68241350
H       -2.04003439      -5.77356480       1.34704673
H       -0.89304078      -4.71970149       3.25961770
H       -1.91524147      -4.80980361       5.52753410
H       -4.09671382      -5.92133637       5.84969741
H       -2.39340139      -3.08292187      -0.16927112
C       -5.61762465      -7.04157943       4.04795167
C       -6.69408225      -7.53033072       4.28627331
Br      -8.43462315      -8.32060022       4.67161925
C       -1.79310713       1.79310713       1.79310713
C       -1.91742079       1.50036830       3.15020730
C       -2.71490934       2.30992735       3.95625904
C       -3.37855442       3.40851643       3.40122499
C       -3.25956592       3.71167128       2.03745890
C       -3.94567972       4.90953619       1.51468559
H       -4.37070395       5.56738212       2.26756758
N       -3.89992724       5.18662803       0.20191207
N       -4.35065282       6.51504028      -0.04927189
C       -4.26793705       7.16099934      -1.26925312
O       -4.67961629       8.31749052      -1.37750901
C       -3.63178625       6.49908646      -2.44391024
C       -2.38665899       5.86856840      -2.28207180
C       -1.72287784       5.28778832      -3.36535020
C       -2.27887456       5.36287366      -4.63773693
C       -3.50204272       6.00885558      -4.82148707
C       -4.18330479       6.57420769      -3.73060305
C       -2.45769865       2.88688721       1.23696124
H       -1.39858270       0.65200887       3.58456804
H       -2.81980993       2.09562351       5.01518413
H       -3.99252327       4.03821083       4.04034810
H       -4.75737199       7.03760438       0.71441993
H       -1.93671179       5.82158626      -1.29174558
H       -0.77718277       4.77873537      -3.20279358
H       -1.76471081       4.91644489      -5.48364471
H       -3.92499584       6.06428080      -5.82092385
H       -2.35094665       3.11482654       0.17982119
C       -5.45578638       7.18056143      -4.02509539
C       -6.52148971       7.68838269      -4.27173273
Br      -8.24464187       8.50948671      -4.67052445
C        1.79310713      -1.79310713       1.79310713
C        1.36279698      -3.07543556       2.12976385
C        2.17116450      -3.88295395       2.92697728
C        3.40539334      -3.40484328       3.37805922
C        3.84744133      -2.11671346       3.04454131
C        5.17859030      -1.68090071       3.51041048
H        5.79443086      -2.45950766       3.95171513
N        5.59874144      -0.43093810       3.25878781
N        6.99539017      -0.30727899       3.51375205
C        7.76283935       0.79808706       3.19493098
O        8.96838394       0.79931781       3.45053167
C        7.16429828       1.96767382       2.49033801
C        6.35958013       1.74646151       1.36003698
C        5.82654205       2.81211376       0.63088767
C        6.12299487       4.11949096       1.00050739
C        6.94258141       4.35765005       2.10447987
C        7.46186497       3.28860320       2.85364766
C        3.02285836      -1.31315338       2.24553536
H        0.40817766      -3.45104636       1.77593559
H        1.85034160      -4.88448503       3.19579094
H        4.03189864      -4.04565650       3.99352706
H        7.47438856      -1.08071515       3.95429259
H        6.13783960       0.72536957       1.05408243
H        5.18102201       2.60908897      -0.21880847
H        5.71428806       4.95118154       0.43440448
H        7.17011535       5.38343231       2.38166975
H        3.35664742      -0.31540497       1.97354199
C        8.26194012       3.64678313       3.99609542
C        8.93200306       3.94675882       4.95289542
Br      10.01543816       4.43179414       6.49996010
C       -0.00445707       0.01189536      -1.78238275
H       -0.66409135       0.67374010      -2.43557963
H        0.65740317      -0.63156657      -2.45157240
C       -0.90989263      -0.90692880      -0.91072765
C        0.90977584       0.90977584      -0.90977584
C       -0.00465871       1.77757030       0.00794375
H       -0.66225468       2.44313916      -0.64384735
H        0.64322798       2.43503045       0.67728295
C       -1.78241447       0.00034974      -0.00472694
H       -2.45427497      -0.65498947       0.64260836
H       -2.43311707       0.67328779      -0.65473579
C       -0.91132561       0.90220522       0.91563759
C       -0.01476271      -0.02253852       1.78660255
H       -0.67934791      -0.69751639       2.42135241
H        0.63392994       0.61504881       2.47327442
C        0.01484550      -1.77751727      -0.01636693
H        0.67870853      -2.42144646      -0.68295456
H       -0.62264859      -2.45592969       0.64226336
C        1.78714474       0.01002794       0.00389507
H        2.44202412       0.67113390       0.66197326
H        2.45385902      -0.65136977      -0.64189061
C        0.91606151      -0.90478549       0.90901405
