121
Properties=species:S:1:pos:R:3 pbc="F F F"
C        0.00000000       0.00000000       0.00000000
C        0.88320311       0.88320311      -0.88320311
C        0.79444493       2.26994209      -0.77389730
C        1.60509186       3.07416346      -1.57212833
C        2.50153634       2.48674645      -2.47030098
C        2.59870372       1.09291255      -2.58736776
C        3.59428306       0.52709182      -3.51881455
H        4.29882137       1.24109273      -3.93602748
N        3.66405515      -0.80175144      -3.69645157
N        4.86225381      -1.15691073      -4.38136606
C        5.31247704      -2.45102508      -4.56851924
O        6.37043227      -2.64917954      -5.16863300
C        4.56603214      -3.61034003      -4.00155828
C        4.14434181      -3.56304367      -2.66214539
C        3.49544548      -4.64839259      -2.06855099
C        3.29216896      -5.81516255      -2.79729282
C        3.72850800      -5.88946284      -4.12065399
C        4.36113919      -4.79181415      -4.72787230
C        1.77463983       0.29550249      -1.78169270
H        0.10395976       2.72817936      -0.07330841
H        1.54856598       4.15554337      -1.49679614
H        3.13486010       3.12317725      -3.08333278
H        5.43868260      -0.41682594      -4.75782756
H        4.31610324      -2.65919865      -2.07993580
H        3.15192756      -4.56960028      -1.04108521
H        2.79182686      -6.66299296      -2.33896502
H        3.56723675      -6.80763258      -4.67903655
H        1.84503543      -0.78627922      -1.85712610
C        4.73451212      -4.96123828      -6.10826649
C        5.04721195      -5.10313099      -7.26434663
Br       5.55282113      -5.33255950      -9.13363043
C       -0.88320311      -0.88320311      -0.88320311
C       -0.67641737      -2.26154169      -0.90032525
C       -1.48650796      -3.06678507      -1.69809062
C       -2.50002833      -2.48930822      -2.46924722
C       -2.71638951      -1.10403108      -2.45856344
C       -3.82951772      -0.55386686      -3.25680485
H       -4.50871809      -1.29044469      -3.67677880
N       -4.01873263       0.77397868      -3.31400133
N       -5.29540337       1.07814302      -3.86944878
C       -5.86056377       2.33968236      -3.90908980
O       -6.97831335       2.49322925      -4.40480163
C       -5.16201505       3.51033696      -3.30557231
C       -4.62482041       3.39390897      -2.01253208
C       -4.01504977       4.48065189      -1.38120599
C       -3.96746817       5.71432199      -2.02115304
C       -4.51996609       5.85505188      -3.29478495
C       -5.11377890       4.75855842      -3.94197687
C       -1.89179921      -0.30499099      -1.65504482
H        0.10545167      -2.71277460      -0.29812461
H       -1.33870569      -4.14191983      -1.72027998
H       -3.13137047      -3.12731692      -3.08268275
H       -5.84182082       0.32341217      -4.26127558
H       -4.67436110       2.43562248      -1.49810176
H       -3.57971451       4.35083237      -0.39453035
H       -3.49810410       6.56310345      -1.53279827
H       -4.47993375       6.82479039      -3.78349735
H       -2.05341733       0.76936370      -1.63182868
C       -5.61611549       5.00364969      -5.26907453
C       -6.03682239       5.20891363      -6.38051883
Br      -6.71706987       5.54080806      -8.17763025
C       -0.88320311       0.88320311       0.88320311
C       -2.26762348       0.72577844       0.84488240
C       -3.07143316       1.52423280       1.65571770
C       -2.48570920       2.47081795       2.50205662
C       -1.09418913       2.63651016       2.54828474
C       -0.52792547       3.61897188       3.49329207
H       -1.23222475       4.03619262       4.20752420
N        0.79573876       3.84212312       3.51237091
N        1.16649928       4.57828499       4.67492343
C        2.46756499       4.82264104       5.07489515
O        2.67977813       5.46424268       6.10542118
C        3.62037126       4.26895318       4.30866847
C        3.60454545       2.91524957       3.93273941
C        4.68754826       2.33583452       3.26731762
C        5.82182068       3.09498574       3.00113417
C        5.86564002       4.43403047       3.39130871
C        4.76936079       5.02610451       4.04045364
C       -0.29736995       1.82994520       1.72451988
H       -2.72425442      -0.01227904       0.19347216
H       -4.15092512       1.41179452       1.63818585
H       -3.12145215       3.08377073       3.13614725
H        0.43333949       4.94962715       5.26339657
H        2.72693766       2.30998471       4.15379334
H        4.63229009       1.29534340       2.96035919
H        6.66785116       2.64794926       2.48770082
H        6.75870268       5.01631574       3.18102765
H        0.78297249       1.94296550       1.75588931
C        4.90422109       6.42309927       4.36266217
C        5.01716660       7.59308238       4.63251181
Br       5.19978992       9.48484612       5.06883586
C        0.88320311      -0.88320311       0.88320311
C        2.26110711      -0.67381163       0.90336557
C        3.06445565      -1.47254071       1.71438730
C        2.48454375      -2.47146056       2.50257946
C        1.09957469      -2.68966898       2.48974036
C        0.53684514      -3.72745545       3.37588884
H        1.22986042      -4.14545472       4.10062644
N       -0.77718232      -3.99952356       3.33641404
N       -1.16202192      -4.79246527       4.45626579
C       -2.46663273      -5.09936910       4.79723484
O       -2.69190537      -5.78705089       5.79474021
C       -3.61081477      -4.55954990       4.00851527
C       -3.63272882      -3.19285609       3.68331625
C       -4.71187721      -2.62862229       2.99885880
C       -5.80593581      -3.41815148       2.66208356
C       -5.81305583      -4.77177449       3.00098050
C       -4.71957159      -5.34754399       3.66922495
C        0.30337215      -1.88209265       1.66637022
H        2.71289554       0.10472651       0.29727850
H        4.13880631      -1.32003701       1.74206217
H        3.11948034      -3.08438230       3.13750749
H       -0.43732341      -5.15880879       5.05819885
H       -2.78746933      -2.56468670       3.95962301
H       -4.68502706      -1.57588243       2.73255713
H       -6.64897643      -2.98320957       2.13356577
H       -6.67501747      -5.37797246       2.73568572
H       -0.77231271      -2.03573509       1.65245994
C       -4.81291071      -6.75978681       3.93466424
C       -4.89108222      -7.94254018       4.15696964
Br      -5.01747895      -9.85495233       4.51641867
