134
Properties=species:S:1:pos:R:3 pbc="F F F"
C        1.79310713       1.79310713      -1.79310713
C        1.70434895       3.17984611      -1.68380133
C        2.51499589       3.98406749      -2.48203236
C        3.41144037       3.39665047      -3.38020500
C        3.50860774       2.00281658      -3.49727178
C        4.50418708       1.43699585      -4.42871857
H        5.20872540       2.15099675      -4.84593150
N        4.57395918       0.10815258      -4.60635559
N        5.77215784      -0.24700671      -5.29127008
C        6.22238107      -1.54112106      -5.47842327
O        7.28033630      -1.73927552      -6.07853702
C        5.47593616      -2.70043600      -4.91146231
C        5.05424583      -2.65313964      -3.57204941
C        4.40534951      -3.73848857      -2.97845501
C        4.20207298      -4.90525853      -3.70719685
C        4.63841203      -4.97955882      -5.03055802
C        5.27104322      -3.88191012      -5.63777633
Br       5.76461409      -4.10587605      -7.46255339
C        2.68454386       1.20540652      -2.69159672
H        1.01386379       3.63808339      -0.98321244
H        2.45847000       5.06544739      -2.40670017
H        4.04476413       4.03308127      -3.99323681
H        6.34858663       0.49307808      -5.66773159
H        5.22600726      -1.74929462      -2.98983982
H        4.06183159      -3.65969625      -1.95098924
H        3.70173088      -5.75308894      -3.24886905
H        4.47714077      -5.89772856      -5.58894057
H        2.75493945       0.12362481      -2.76703013
C       -1.79310713      -1.79310713      -1.79310713
C       -1.71292001      -1.67539616      -3.17968022
C       -2.51102901      -2.48592246      -3.98414426
C       -3.37992514      -3.41111026      -3.39726045
C       -3.46756759      -3.53751760      -2.00361091
C       -4.36823321      -4.56204105      -1.43962724
H       -4.78574255      -5.26072750      -2.15918360
N       -4.51823505      -4.66100118      -0.10923113
N       -5.17269855      -5.87912681       0.23540415
C       -5.32553727      -6.35790862       1.52376261
O       -5.90104343      -7.43113362       1.71257926
C       -4.75036205      -5.62299291       2.68639249
C       -3.42055248      -5.17412257       2.62151945
C       -2.81832597      -4.53476166       3.70777167
C       -3.52770264      -4.36851473       4.89220607
C       -4.84065042      -4.83223395       4.98347315
C       -5.45705301      -5.45536677       3.88551035
Br      -7.26716508      -5.98908432       4.13495798
C       -2.66241137      -2.71330083      -1.20583489
H       -1.03499871      -0.96248659      -3.63767432
H       -2.45815432      -2.40700974      -5.06545350
H       -3.99302599      -4.04397355      -4.03408266
H       -5.55246527      -6.44844398      -0.50848704
H       -2.85307445      -5.31684443       1.70336642
H       -1.79945334      -4.16957908       3.61590784
H       -3.06250302      -3.87572463       5.74071666
H       -5.38382493      -4.69980531       5.91527746
H       -2.71511096      -2.80608774      -0.12439569
C       -1.79310713       1.79310713       1.79310713
C       -1.96209414       1.46795640       3.13794584
C       -2.75949582       2.27727948       3.94432043
C       -3.37837734       3.40789315       3.40202535
C       -3.21425352       3.74377441       2.05066818
C       -3.85383251       4.97334845       1.54272054
H       -4.28161600       5.62232565       2.30171200
N       -3.76497339       5.28382886       0.23966511
N       -4.17327392       6.63023193       0.01291536
C       -4.04021939       7.30584251      -1.18637862
O       -4.41796030       8.47559175      -1.27395425
C       -3.39007233       6.65823834      -2.36134820
C       -2.16698995       5.98993944      -2.18377379
C       -1.48957058       5.42023125      -3.26448587
C       -2.00848654       5.54418359      -4.54865883
C       -3.20861804       6.22791799      -4.74712480
C       -3.90412240       6.78248409      -3.65969707
Br      -5.55314662       7.63964371      -4.07149891
C       -2.41303171       2.91897058       1.24954481
H       -1.47798496       0.59454098       3.56263367
H       -2.89887405       2.03789027       4.99385325
H       -3.99261461       4.03690866       4.04155894
H       -4.58665019       7.14323938       0.77950673
H       -1.74561189       5.90444580      -1.18350523
H       -0.56249995       4.88145312      -3.09082849
H       -1.48348187       5.10650910      -5.39247998
H       -3.60254914       6.32135449      -5.75555084
H       -2.27149024       3.17188757       0.20221658
C        1.79310713      -1.79310713       1.79310713
C        1.42480282      -3.11709217       2.02610140
C        2.23377388      -3.92391579       2.82340606
C        3.40696814      -3.40313504       3.37819267
C        3.78641911      -2.07287542       3.14940158
C        5.05795117      -1.58945552       3.72249481
H        5.69425124      -2.35654005       4.15486236
N        5.41315299      -0.30363525       3.57167911
N        6.78189035      -0.11416255       3.92036830
C        7.49610961       1.05224652       3.71582019
O        8.68207220       1.10845297       4.04597858
C        6.86808203       2.22635758       3.04523803
C        6.14672356       2.02930997       1.85574200
C        5.59190560       3.10526357       1.15867393
C        5.78370016       4.40213296       1.62244410
C        6.52036171       4.61858741       2.78763692
C        7.06050987       3.53718945       3.50358900
Br       7.99570219       3.97669697       5.10228620
C        2.96164576      -1.27083795       2.34906340
H        0.51804540      -3.52537592       1.59173830
H        1.96097675      -4.95745101       3.01218981
H        4.03501848      -4.04320475       3.99285898
H        7.28157565      -0.88410381       4.34371684
H        6.00770424       1.01808233       1.47693055
H        5.01149884       2.91815126       0.25977699
H        5.35779373       5.24210785       1.08182510
H        6.66655299       5.63662888       3.13842867
H        3.24778498      -0.24010912       2.15770028
C       -0.00445707       0.01189536      -1.78238275
H       -0.66409135       0.67374010      -2.43557963
H        0.65740317      -0.63156657      -2.45157240
C       -0.90989263      -0.90692880      -0.91072765
C        0.90977584       0.90977584      -0.90977584
C       -0.00465871       1.77757030       0.00794375
H       -0.66225468       2.44313916      -0.64384735
H        0.64322798       2.43503045       0.67728295
C       -1.78241447       0.00034974      -0.00472694
H       -2.45427497      -0.65498947       0.64260836
H       -2.43311707       0.67328779      -0.65473579
C       -0.91132561       0.90220522       0.91563759
C       -0.01476271      -0.02253852       1.78660255
H       -0.67934791      -0.69751639       2.42135241
H        0.63392994       0.61504881       2.47327442
C        0.01484550      -1.77751727      -0.01636693
H        0.67870853      -2.42144646      -0.68295456
H       -0.62264859      -2.45592969       0.64226336
C        1.78714474       0.01002794       0.00389507
H        2.44202412       0.67113390       0.66197326
H        2.45385902      -0.65136977      -0.64189061
C        0.91606151      -0.90478549       0.90901405
