141
Properties=species:S:1:pos:R:3 pbc="F F F"
C        0.00000000       0.00000000       0.00000000
C        0.88177846       0.88177846      -0.88177846
C        1.74065795       0.29616591      -1.80708871
C        2.54422428       1.10719231      -2.61333781
C        2.49483240       2.50619062      -2.50889519
C        1.62214291       3.07535570      -1.56987697
C        0.81970223       2.26804608      -0.75661149
C        3.31337624       3.34904681      -3.37317902
C        3.25496749       4.66508291      -3.77280969
C        4.33857299       4.85496833      -4.66017737
C        5.02998448       3.65372425      -4.76587195
C        6.17479396       3.31388329      -5.54048594
H        6.60312481       2.33260622      -5.35994924
N        6.60657132       4.19581647      -6.45510220
N        7.70705210       3.67260946      -7.20746033
C        8.23158291       4.31452956      -8.31070190
O        8.92166219       3.69581030      -9.12488877
C        7.99476927       5.76831029      -8.53462609
C        7.92593294       6.68490399      -7.47758468
C        7.73748769       8.04502942      -7.72946961
C        7.64307364       8.50141775      -9.04344583
C        7.73993017       7.59322185     -10.09878328
Br       7.63356784       8.22177269     -11.88046362
C        7.91943670       6.23308173      -9.85428369
O        4.39044414       2.74506298      -3.95129860
H        1.79649673      -0.78348852      -1.91639422
H        3.20930927       0.64127322      -3.34007586
H        1.56598533       4.15530399      -1.45771613
H        0.15433227       2.73158292      -0.03424782
H        2.51267836       5.39487050      -3.49004253
H        4.60819740       5.75526919      -5.19471185
H        7.88163205       2.67801003      -7.14320266
H        8.01232809       6.32957887      -6.45319427
H        7.66414932       8.73821781      -6.89608919
H        7.49647499       9.56009970      -9.23271128
H        7.99833012       5.52200285     -10.67237782
C       -0.88177846      -0.88177846      -0.88177846
C       -0.69367641      -2.26068101      -0.88955515
C       -1.50438744      -3.06383476      -1.69653220
C       -2.51144029      -2.50170002      -2.49677790
C       -2.68380961      -1.10992249      -2.47364348
C       -1.87149528      -0.30093466      -1.67192986
C       -3.37451366      -3.34669196      -3.31439645
C       -4.61163653      -3.18504896      -3.89617460
C       -4.91117605      -4.41210390      -4.53043873
C       -3.84444934      -5.27949095      -4.32564039
C       -3.66138210      -6.62939174      -4.73838935
H       -2.68115492      -7.05909606      -4.55542929
N       -4.70858921      -7.27738038      -5.27152040
N       -4.38942096      -8.64478457      -5.55291636
C       -5.33445455      -9.56584830      -5.95651151
O       -5.11260796     -10.77511622      -5.85463708
C       -6.63221932      -9.12493466      -6.54055168
C       -6.73619080      -7.99302632      -7.35920449
C       -7.96391433      -7.63137296      -7.91669943
C       -9.09202449      -8.41570510      -7.68020762
C       -8.98426376      -9.55969055      -6.88798099
Br     -10.51416774     -10.63247797      -6.58915845
C       -7.76367930      -9.92176373      -6.32135909
O       -2.90222984      -4.59604975      -3.58852613
H        0.07278526      -2.72623841      -0.27594927
H       -1.35524520      -4.14332707      -1.69208608
H       -3.44895615      -0.64194141      -3.08810789
H       -2.02145262       0.77465987      -1.67337026
H       -5.23907319      -2.30886439      -3.84965382
H       -5.80669752      -4.67547592      -5.07600499
H       -3.54854248      -9.02046219      -5.13384007
H       -5.85290218      -7.38873987      -7.55345918
H       -8.02995959      -6.73760625      -8.53089050
H      -10.04372047      -8.12914746      -8.11641803
H       -7.67360849     -10.81305960      -5.70604270
C       -0.88177846       0.88177846       0.88177846
C       -0.32287004       1.56044797       1.96059456
C       -1.13332141       2.36789481       2.76353817
C       -2.50387368       2.51046803       2.49557651
C       -3.04638617       1.81764069       1.40334872
C       -2.24076265       1.00382152       0.59977562
C       -3.33951131       3.37772552       3.31836523
C       -4.55483889       3.99893748       3.13908373
C       -4.79553228       4.73967077       4.31851563
C       -3.72646381       4.53910933       5.18400753
C       -3.47741099       5.07124473       6.48050747
H       -2.61951467       4.66695381       7.00921179
N       -4.27828090       6.05006894       6.92914016
N       -3.84616747       6.53581443       8.20513998
C       -4.40153725       7.64442080       8.81085631
O       -3.79778012       8.23352974       9.71105139
C       -5.74627468       8.14347424       8.40795673
C       -6.78085973       7.27838585       8.02917602
C       -8.03845906       7.78182709       7.69170058
C       -8.27755012       9.15382041       7.75656669
C       -7.25614992      10.01462407       8.16116132
Br      -7.59348636      11.87349098       8.26882681
C       -5.99595348       9.51967136       8.49117728
O       -2.84985084       3.68329444       4.55366044
H        0.73597275       1.47584162       2.18953355
H       -0.68691856       2.90127659       3.60246320
H       -4.10587385       1.89955935       1.17357225
H       -2.68416288       0.47434135      -0.23834122
H       -5.18125026       3.95427172       2.26206941
H       -5.64171521       5.37450432       4.54195891
H       -2.91545237       6.27927780       8.50811457
H       -6.59709877       6.20699863       7.99100383
H       -8.82217962       7.09754206       7.37873465
H       -9.25742410       9.53904891       7.49281296
H       -5.19794236      10.18521772       8.80955071
C        0.88177846      -0.88177846       0.88177846
C        2.23237572      -1.03065403       0.58088281
C        3.03589848      -1.83697193       1.39188399
C        2.50299666      -2.49600362       2.51091793
C        1.13947132      -2.33202749       2.79587676
C        0.32957443      -1.53053556       1.98424982
C        3.35191572      -3.31232421       3.37136213
C        3.25559105      -3.77182508       4.66544396
C        4.44765520      -4.48793382       4.91812966
C        5.22841201      -4.45254991       3.76861876
C        6.51693070      -5.00024345       3.51198903
H        6.86940134      -4.93949193       2.48678700
N        7.21082191      -5.50097540       4.54569269
N        8.51527411      -5.93125753       4.14059025
C        9.48165293      -6.33681003       5.03835140
O       10.66998149      -6.36424882       4.70813095
C        9.11352207      -6.76808740       6.41609618
C        7.93148784      -7.46881336       6.68812041
C        7.63785043      -7.88679934       7.98733696
C        8.53855735      -7.62945463       9.01992524
C        9.73002879      -6.95636772       8.74553879
Br      10.95874464      -6.62992619      10.14713332
C       10.02549325      -6.52876766       7.45254121
O        4.52589614      -3.73741650       2.82349308
H        2.67577457      -0.52799250      -0.27436464
H        4.09393827      -1.94322452       1.15349556
H        0.69347608      -2.83543008       3.65009929
H       -0.72427264      -1.42158697       2.22284868
H        2.44707775      -3.59362754       5.35688611
H        4.74502986      -4.97864996       5.83449861
H        8.84649322      -5.61966271       3.23668881
H        7.23524965      -7.68022059       5.87963099
H        6.70572928      -8.40945844       8.18326861
H        8.30443310      -7.95692519      10.02792767
H       10.95306994      -6.00676966       7.23287119
