162
Properties=species:S:1:pos:R:3 pbc="F F F"
C        1.79168248       1.79168248      -1.79168248
C        2.65056198       1.20606993      -2.71699273
C        3.45412830       2.01709633      -3.52324184
C        3.40473643       3.41609464      -3.41879922
C        2.53204693       3.98525973      -2.47978099
C        1.72960625       3.17795011      -1.66651552
C        4.22328026       4.25895083      -4.28308304
C        4.16487151       5.57498693      -4.68271372
C        5.24847701       5.76487235      -5.57008140
C        5.93988850       4.56362827      -5.67577597
C        7.08469798       4.22378731      -6.45038997
H        7.51302883       3.24251025      -6.26985327
N        7.51647534       5.10572049      -7.36500623
N        8.61695612       4.58251349      -8.11736435
C        9.14148693       5.22443359      -9.22060592
O        9.83156621       4.60571432     -10.03479279
C        8.90467329       6.67821431      -9.44453012
C        8.83583696       7.59480801      -8.38748871
C        8.64739171       8.95493345      -8.63937364
C        8.55297766       9.41132177      -9.95334985
C        8.64983419       8.50312588     -11.00868731
Br       8.54347186       9.13167672     -12.79036764
C        8.82934072       7.14298575     -10.76418771
O        5.30034816       3.65496700      -4.86120263
H        2.70640075       0.12641550      -2.82629824
H        4.11921329       1.55117725      -4.24997989
H        2.47588935       5.06520802      -2.36762015
H        1.06423629       3.64148695      -0.94415185
H        3.42258239       6.30477453      -4.39994655
H        5.51810142       6.66517322      -6.10461587
H        8.79153608       3.58791405      -8.05310668
H        8.92223211       7.23948289      -7.36309829
H        8.57405335       9.64812184      -7.80599322
H        8.40637901      10.47000372     -10.14261530
H        8.90823414       6.43190688     -11.58228184
C       -1.79168248      -1.79168248      -1.79168248
C       -1.23271257      -2.87030826      -2.47060381
C       -2.04396349      -3.67572642      -3.27477656
C       -3.41763061      -3.41740494      -3.40459474
C       -3.96019939      -2.32535136      -2.71153690
C       -3.15165734      -1.51274565      -1.90966889
C       -4.26564606      -4.27850193      -4.22116615
C       -5.61871130      -4.52550646      -4.27835441
C       -5.79667748      -5.51080314      -5.27595014
C       -4.54983059      -5.82608634      -5.80337581
C       -4.18489924      -6.76395232      -6.81002371
H       -3.14899789      -6.74174663      -7.13464782
N       -5.11879027      -7.62427379      -7.24413800
N       -4.57493364      -8.55443815      -8.18746217
C       -5.28459114      -9.63766152      -8.66427378
O       -4.69766097     -10.58993455      -9.18447781
C       -6.77163277      -9.67518102      -8.58060394
C       -7.55721217      -8.52574954      -8.73517197
C       -8.94999411      -8.60665250      -8.68505219
C       -9.56780209      -9.84361440      -8.50623280
C       -8.78731722     -10.99382093      -8.38050923
Br      -9.63230701     -12.67262923      -8.16057999
C       -7.39635866     -10.91913958      -8.42101595
O       -3.62370505      -5.04250216      -5.15031058
H       -0.17415069      -3.10011665      -2.38484716
H       -1.60005855      -4.52238226      -3.79792961
H       -5.01874365      -2.09265508      -2.79731879
H       -3.59376477      -0.67062773      -1.38548258
H       -6.38444203      -4.07967340      -3.66318803
H       -6.72051979      -5.97459542      -5.59277529
H       -3.56688151      -8.61806139      -8.24761391
H       -7.07467129      -7.56287957      -8.88726244
H       -9.54230608      -7.70129368      -8.78456865
H      -10.65108108      -9.89989016      -8.46802679
H       -6.78396545     -11.81198422      -8.32647319
C       -1.79168248       1.79168248       1.79168248
C       -1.78095881       3.17270132       1.61996451
C       -2.59112881       3.97548983       2.42784783
C       -3.42175734       3.40987954       3.40799340
C       -3.41706977       2.01599184       3.56402604
C       -2.60398388       1.20830490       2.76178309
C       -4.28765313       4.24934895       4.22831205
C       -5.42060609       4.02465605       4.97731003
C       -5.80047385       5.28081186       5.50214505
C       -4.88277240       6.22974922       5.06677113
C       -4.82766768       7.63316867       5.29803891
H       -3.93703328       8.14382517       4.94453389
N       -5.88200940       8.22153505       5.88365761
N       -5.70982026       9.64082568       5.96618802
C       -6.71283713      10.49332045       6.38036886
O       -6.65962855      11.69702139       6.11542339
C       -7.86974653       9.98687522       7.17079597
C       -7.73584343       8.96393153       8.11835872
C       -8.83681258       8.54010915       8.86477708
C      -10.07499079       9.15575103       8.68690747
C      -10.20371814      10.19438683       7.76354240
Br     -11.88158269      11.04105733       7.54287621
C       -9.11086641      10.61665642       7.00899135
O       -3.95037122       5.56864726       4.29749931
H       -1.15408608       3.63977634       0.86525207
H       -2.58206452       5.05551042       2.28279548
H       -4.04224123       1.54678596       4.31969033
H       -2.61468636       0.13165087       2.90353785
H       -5.93262426       3.08457916       5.11010005
H       -6.65498016       5.50884365       6.12406670
H       -4.97624517      10.05247941       5.40383224
H       -6.76660070       8.49273972       8.26547288
H       -8.71889598       7.73008959       9.57918283
H      -10.92718215       8.82160855       9.27020733
H       -9.20491962      11.42680619       6.29069706
C        1.79168248      -1.79168248       1.79168248
C        3.14637188      -1.92510479       1.50214798
C        3.94985118      -2.73149289       2.31312241
C        3.41276087      -3.40598288       3.42088653
C        2.04515101      -3.25743188       3.69450476
C        1.23534946      -2.45592290       2.88279952
C        4.26126525      -4.22241493       4.28163396
C        4.15720014      -4.69496614       5.57040589
C        5.35354766      -5.40226671       5.82761638
C        6.14463107      -5.34876924       4.68589243
C        7.44059154      -5.88197087       4.43631286
H        7.80202725      -5.80827643       3.41508866
N        8.12949142      -6.38592122       5.47178942
N        9.44166357      -6.80017427       5.07499613
C       10.40339918      -7.20512963       5.97799762
O       11.59496376      -7.21836404       5.65874553
C       10.02650505      -7.65278484       7.34812783
C        8.84863754      -8.36704413       7.60245201
C        8.54683801      -8.79997403       8.89488676
C        9.43540388      -8.54397363       9.93827177
C       10.62299021      -7.85724063       9.68141653
Br      11.83544118      -7.53256458      11.09751046
C       10.92646801      -7.41473903       8.39530714
O        5.44426066      -4.63135128       3.74090585
H        3.59297828      -1.41029171       0.65584450
H        5.01102386      -2.82561535       2.08373121
H        1.59596499      -3.77300051       4.53975202
H        0.17834175      -2.35906754       3.11246580
H        3.34062574      -4.53084446       6.25583327
H        5.64696662      -5.89879748       6.74212641
H        9.77835427      -6.47699973       4.17720281
H        8.16199807      -8.57731401       6.78550122
H        7.61789420      -9.33313275       9.07714145
H        9.19497747      -8.88309706      10.94092350
H       11.85109554      -6.88206013       8.18926719
C       -0.00445707       0.01189536      -1.78238275
H       -0.66409135       0.67374010      -2.43557963
H        0.65740317      -0.63156657      -2.45157240
C       -0.90989263      -0.90692880      -0.91072765
C        0.90977584       0.90977584      -0.90977584
C       -0.00465871       1.77757030       0.00794375
H       -0.66225468       2.44313916      -0.64384735
H        0.64322798       2.43503045       0.67728295
C       -1.78241447       0.00034974      -0.00472694
H       -2.45427497      -0.65498947       0.64260836
H       -2.43311707       0.67328779      -0.65473579
C       -0.91132561       0.90220522       0.91563759
C       -0.01476271      -0.02253852       1.78660255
H       -0.67934791      -0.69751639       2.42135241
H        0.63392994       0.61504881       2.47327442
C        0.01484550      -1.77751727      -0.01636693
H        0.67870853      -2.42144646      -0.68295456
H       -0.62264859      -2.45592969       0.64226336
C        1.78714474       0.01002794       0.00389507
H        2.44202412       0.67113390       0.66197326
H        2.45385902      -0.65136977      -0.64189061
C        0.91606151      -0.90478549       0.90901405
