154
Properties=species:S:1:pos:R:3 pbc="F F F"
C        1.79155420       1.79155420      -1.79155420
C        1.91832231       3.14828668      -1.50429094
C        2.74703602       3.95264756      -2.29447764
C        3.46601765       3.39620564      -3.36190206
C        3.30253239       2.03673695      -3.65993199
C        2.46924510       1.23422362      -2.87377337
C        4.44940319       4.20270250      -4.15731625
N        4.72440002       3.84315451      -5.38404868
N        5.67490498       4.55426849      -6.04847560
C        6.20342819       4.27392233      -7.29233464
O        7.15796452       4.94577666      -7.67810722
C        5.67590296       3.17479005      -8.14627910
C        5.38471373       1.92555730      -7.57519633
C        4.98598677       0.84897465      -8.37294198
C        4.90110271       0.99710016      -9.75404262
C        5.19698746       2.22795663     -10.33699193
C        5.57638722       3.31826508      -9.54043929
C        5.12204285       5.37596466      -3.46075491
H        1.38381844       3.58959334      -0.66597679
H        2.81208302       5.01017840      -2.05499720
H        3.83940819       1.58599010      -4.49115966
H        2.36700649       0.17728529      -3.10655064
H        6.13634271       5.33859993      -5.59970988
H        5.48918552       1.77056210      -6.50501716
H        4.75779503      -0.11072546      -7.91565943
H        4.60892716       0.15718189     -10.37866406
H        5.13159688       2.33026631     -11.41861840
H        4.88406785       5.44064996      -2.39827652
H        4.81940615       6.30790756      -3.94740944
H        6.20920374       5.26512735      -3.52311276
C        5.80495670       4.55563706     -10.24062967
C        5.99638363       5.59193610     -10.82703911
Br       6.30590480       7.26754399     -11.77521358
C       -1.79155420      -1.79155420      -1.79155420
C       -2.65438753      -1.20352019      -2.71299221
C       -3.44335090      -2.00994966      -3.54086065
C       -3.35547622      -3.40707146      -3.46157766
C       -2.50801048      -3.98458929      -2.50660155
C       -1.72411569      -3.17824792      -1.67487847
C       -4.09963557      -4.30023819      -4.40954818
N       -4.39261960      -5.51962070      -4.03936291
N       -5.00229499      -6.32331729      -4.95203679
C       -5.28548423      -7.66742462      -4.81677631
O       -5.71311287      -8.26850206      -5.80023346
C       -5.05657900      -8.39934707      -3.54104604
C       -3.86746960      -8.19517217      -2.82282558
C       -3.58482590      -8.94548392      -1.67759359
C       -4.47156068      -9.92956195      -1.25112286
C       -5.65123758     -10.15137639      -1.95932206
C       -5.95138647      -9.38720721      -3.09649791
C       -4.42491043      -3.74561695      -5.78823504
H       -2.71714357      -0.12115388      -2.80109113
H       -4.11827364      -1.52126199      -4.23772300
H       -2.43331855      -5.06571558      -2.41752381
H       -1.05789434      -3.64147965      -0.95146844
H       -5.22509093      -5.97206531      -5.87749628
H       -3.13666892      -7.46630179      -3.16179408
H       -2.66274558      -8.77173791      -1.12824552
H       -4.24623690     -10.52686645      -0.37166977
H       -6.33466762     -10.92702000      -1.61879397
H       -3.97869265      -2.76823067      -5.97607102
H       -5.51032081      -3.66508810      -5.89931424
H       -4.02565118      -4.41535535      -6.55643732
C       -7.22076711      -9.66210164      -3.71835467
C       -8.28387340      -9.89232573      -4.23915971
Br     -10.00282635     -10.26457861      -5.08125742
C       -1.79155420       1.79155420       1.79155420
C       -2.95466715       2.34938020       1.26685259
C       -3.77822266       3.13536062       2.08057793
C       -3.44914986       3.34814719       3.42682830
C       -2.25858031       2.80863940       3.93198162
C       -1.43232309       2.02821347       3.11670553
C       -4.36486470       4.08837919       4.35617804
N       -3.86253949       4.68124297       5.40782076
N       -4.73188059       5.27948468       6.26628381
C       -4.43320894       5.84880618       7.48767004
O       -5.36783079       6.21833947       8.19567814
C       -3.03314892       5.99124060       7.97258259
C       -2.13277005       4.92339305       7.82930425
C       -0.84456232       4.99581002       8.36753108
C       -0.44826961       6.12297191       9.08100398
C       -1.33409987       7.18699335       9.24084281
C       -2.62042624       7.12999563       8.68466971
C       -5.85405108       4.05767233       4.04703901
H       -3.23425322       2.17491715       0.23021821
H       -4.66979882       3.56987487       1.63758494
H       -1.97583021       2.97150166       4.96922607
H       -0.52118682       1.60137369       3.52828192
H       -5.72888428       5.26744717       6.07832107
H       -2.43350809       4.01325954       7.31799715
H       -0.15628369       4.16334880       8.24309651
H        0.54620995       6.17489831       9.51608475
H       -1.01436242       8.06121221       9.80490695
H       -6.10865846       3.39687112       3.21746475
H       -6.19553716       5.06957794       3.80960805
H       -6.40128968       3.67974957       4.91640460
C       -3.43230502       8.30584662       8.86307178
C       -4.11225350       9.29062183       9.01248352
Br      -5.21167268      10.88292004       9.25406966
C        1.79155420      -1.79155420       1.79155420
C        1.54673898      -1.86359662       3.16056434
C        2.33613791      -2.69179907       3.96622423
C        3.35963665      -3.46476807       3.39972062
C        3.61632484      -3.35650770       2.02636879
C        2.83116345      -2.52381333       1.22226531
C        4.14922528      -4.44757584       4.21262082
N        5.35322611      -4.77599993       3.82237717
N        6.00980477      -5.72464139       4.54320291
C        7.22524877      -6.30427650       4.24015989
O        7.60201430      -7.24872949       4.93110460
C        8.05812518      -5.84276897       3.09607795
C        7.45465816      -5.57364588       1.85716331
C        8.22791792      -5.23812897       0.74185652
C        9.61531834      -5.19559155       0.84133560
C       10.22985633      -5.47041639       2.06166330
C        9.45889460      -5.78621561       3.18998137
C        3.47129531      -5.05695934       5.43050777
H        0.74207379      -1.28651726       3.61079752
H        2.13087634      -2.71369583       5.03268647
H        4.41351104      -3.93602600       1.56702090
H        3.03097711      -2.46451857       0.15534674
H        5.57308655      -6.14435524       5.35721073
H        6.37694761      -5.64658802       1.74122915
H        7.74592592      -5.02626075      -0.20945766
H       10.22021031      -4.95278589      -0.02822309
H       11.31591317      -5.43864094       2.12592748
H        2.42007716      -4.78085336       5.52206381
H        3.99919833      -4.74051639       6.33500842
H        3.49391887      -6.14868066       5.35484432
C       10.19298552      -5.99758772       4.41065019
C       10.80778665      -6.17461186       5.43296033
Br      11.80186810      -6.46084493       7.08594935
C       -0.00445707       0.01189536      -1.78238275
H       -0.66409135       0.67374010      -2.43557963
H        0.65740317      -0.63156657      -2.45157240
C       -0.90989263      -0.90692880      -0.91072765
C        0.90977584       0.90977584      -0.90977584
C       -0.00465871       1.77757030       0.00794375
H       -0.66225468       2.44313916      -0.64384735
H        0.64322798       2.43503045       0.67728295
C       -1.78241447       0.00034974      -0.00472694
H       -2.45427497      -0.65498947       0.64260836
H       -2.43311707       0.67328779      -0.65473579
C       -0.91132561       0.90220522       0.91563759
C       -0.01476271      -0.02253852       1.78660255
H       -0.67934791      -0.69751639       2.42135241
H        0.63392994       0.61504881       2.47327442
C        0.01484550      -1.77751727      -0.01636693
H        0.67870853      -2.42144646      -0.68295456
H       -0.62264859      -2.45592969       0.64226336
C        1.78714474       0.01002794       0.00389507
H        2.44202412       0.67113390       0.66197326
H        2.45385902      -0.65136977      -0.64189061
C        0.91606151      -0.90478549       0.90901405
