125
Properties=species:S:1:pos:R:3 pbc="F F F"
C        0.00000000       0.00000000       0.00000000
C        0.88165017       0.88165017      -0.88165017
C        1.00841829       2.23838266      -0.59438692
C        1.83713200       3.04274353      -1.38457361
C        2.55611362       2.48630161      -2.45199803
C        2.39262837       1.12683292      -2.75002797
C        1.55934107       0.32431959      -1.96386935
C        3.53949916       3.29279848      -3.24741223
N        3.81449600       2.93325048      -4.47414465
N        4.76500096       3.64436447      -5.13857158
C        5.29352417       3.36401831      -6.38243061
O        6.24806049       4.03587263      -6.76820319
C        4.76599894       2.26488603      -7.23637507
C        4.47480971       1.01565327      -6.66529231
C        4.07608275      -0.06092937      -7.46303796
C        3.99119869       0.08719614      -8.84413859
C        4.28708343       1.31805260      -9.42708791
C        4.66648320       2.40836105      -8.63053527
Br       4.96877190       4.04481568      -9.55655412
C        4.21213882       4.46606063      -2.55085088
H        0.47391441       2.67968932       0.24392723
H        1.90217900       4.10027438      -1.14509318
H        2.92950417       0.67608608      -3.58125563
H        1.45710247      -0.73261873      -2.19664661
H        5.22643869       4.42869590      -4.68980585
H        4.57928149       0.86065808      -5.59511314
H        3.84789100      -1.02062948      -7.00575541
H        3.69902313      -0.75272213      -9.46876004
H        4.22169285       1.42036228     -10.50871438
H        3.97416383       4.53074594      -1.48837250
H        3.90950212       5.39800353      -3.03750542
H        5.29929972       4.35522333      -2.61320873
C       -0.88165017      -0.88165017      -0.88165017
C       -0.69626709      -0.88307335      -2.26184742
C       -1.48472034      -1.71049407      -3.06923472
C       -2.44699037      -2.55291836      -2.49450453
C       -2.64559701      -2.51607526      -1.10781698
C       -1.86163834      -1.68429611      -0.30159556
C       -3.22925570      -3.53433433      -3.31611984
N       -4.39894502      -3.93362934      -2.88931677
N       -5.04576946      -4.87890877      -3.62325878
C       -6.21993777      -5.52565659      -3.29437873
O       -6.58632720      -6.45536438      -4.01044473
C       -7.01931398      -5.15244432      -2.09550173
C       -6.37253300      -4.91022307      -0.87299922
C       -7.10825031      -4.65880194       0.28886091
C       -8.49927244      -4.67494195       0.25168097
C       -9.15601251      -4.92416185      -0.95204958
C       -8.42403387      -5.15544402      -2.12590163
Br      -9.45404886      -5.40844061      -3.70765223
C       -2.58145343      -4.05895578      -4.58864114
H        0.06136872      -0.25111805      -2.71992717
H       -1.32726960      -1.67678597      -4.14349098
H       -3.39524951      -3.15052091      -0.64107546
H       -2.01525325      -1.68045267       0.77457557
H       -4.62861709      -5.24268851      -4.47363484
H       -5.28852566      -4.93918367      -0.80734338
H       -6.59326224      -4.46675690       1.22700221
H       -9.07407549      -4.49775657       1.15677102
H      -10.24422136      -4.93890629      -0.96764186
H       -1.54843334      -3.73175802      -4.71309090
H       -3.16305333      -3.72784279      -5.45411495
H       -2.55325146      -5.15283337      -4.56164695
C       -0.88165017       0.88165017       0.88165017
C       -1.80908182       1.73822186       0.29388419
C       -2.63687743       2.52709695       1.10047477
C       -2.55145864       2.44534788       2.49760676
C       -1.59059668       1.60423847       3.07465411
C       -0.75896716       0.82044817       2.26811469
C       -3.49881000       3.18928334       3.39161653
N       -3.12480844       3.48885097       4.60823172
N       -4.03667548       4.09807942       5.41318211
C       -3.89703870       4.38739925       6.75553514
O       -4.87976968       4.81345095       7.35891569
C       -2.61735647       4.16680563       7.48309794
C       -1.89505842       2.97983703       7.28085983
C       -0.74557329       2.70504298       8.02757507
C       -0.31872287       3.59760748       9.00620307
C       -1.03088781       4.77525833       9.22607781
C       -2.17244682       5.06753307       8.46539962
Br      -3.00031647       6.74440145       8.82542378
C       -4.88111432       3.50655514       2.84138088
H       -1.90191168       1.79612217      -0.78835735
H       -3.33854717       3.19710132       0.61189807
H       -1.49674361       1.53440136       4.15570090
H       -0.03089147       0.15914909       2.73108979
H       -4.96449475       4.31559045       5.06485525
H       -2.23400060       2.24462432       6.55642778
H       -0.19312688       1.78452738       7.85536266
H        0.56411792       3.37839942       9.60077954
H       -0.68999627       5.46330172       9.99747153
H       -5.07113410       3.05551383       1.86663433
H       -4.99702761       4.59115385       2.75682961
H       -5.64487975       3.10690739       3.51594464
C        0.88165017      -0.88165017       0.88165017
C        1.75999973      -0.29316879       1.78801934
C        2.54918754      -1.09919663       2.61606497
C        2.44614358      -2.49607173       2.55219797
C        1.58291984      -3.07454222       1.61202720
C        0.79875915      -2.26869468       0.78007618
C        3.19088778      -3.38712838       3.50169371
N        3.46746809      -4.61322618       3.14119686
N        4.07829556      -5.41378874       4.05585269
C        4.34623952      -6.76208250       3.93165107
O        4.77785644      -7.35743025       4.91684964
C        4.09659377      -7.50465867       2.66600759
C        2.90225274      -7.29554026       1.95796228
C        2.60004012      -8.05460499       0.82354622
C        3.47214127      -9.05216595       0.39822619
C        4.65676552      -9.27892706       1.09653137
C        4.97654022      -8.50627089       2.22256840
Br       6.65995060      -8.87876505       3.03142605
C        3.53613995      -2.82177710       4.87113329
H        1.83478511       0.78933576       1.86422715
H        3.23629427      -0.61040767       3.30084462
H        1.49620242      -4.15569301       1.53495045
H        0.12033883      -2.73239353       0.06839799
H        4.31428480      -5.05537806       4.97527758
H        2.18253833      -6.55567769       2.29683668
H        1.67414021      -7.87694928       0.28192743
H        3.23157388      -9.65610393      -0.47261677
H        5.32861756     -10.06508210       0.75706986
H        3.10196259      -1.83793252       5.05338715
H        4.62341517      -2.75138399       4.97021191
H        3.13801698      -3.47940567       5.65030912
