154
Properties=species:S:1:pos:R:3 pbc="F F F"
C        1.79209988       1.79209988      -1.79209988
C        3.17389419       1.78567476      -1.60757888
C        3.98237447       2.56970484      -2.42846003
C        3.40608988       3.36167992      -3.42408728
C        2.01431539       3.40363283      -3.58494579
C        1.20855061       2.59227643      -2.77404839
C        1.33974933       4.23586427      -4.62366548
O        0.28718475       3.84098491      -5.12557405
N        1.87072675       5.45385970      -5.00981476
N        2.93280845       6.03805749      -4.40166525
C        3.29150830       7.19637132      -4.85395515
C        4.47413705       7.88856359      -4.28599087
C        5.18129188       7.23628514      -3.25878300
C        6.30553406       7.84799549      -2.75134029
O        7.10725641       7.34897233      -1.77458547
C        8.10248672       8.38905905      -1.68075222
O        7.86561017       9.48904960      -2.58683898
C        6.73603522       9.06454429      -3.21511284
C        6.06491485       9.74105210      -4.21296214
C        4.91814220       9.14336779      -4.75784624
H        3.62887371       1.16841276      -0.83759243
H        5.06209662       2.56142374      -2.29920864
H        4.05835986       3.93685735      -4.07504665
H        0.12955365       2.59056534      -2.91384402
H        1.33871735       5.96095707      -5.70960408
H        2.73856333       7.67837279      -5.67764109
H        4.86895645       6.27297012      -2.86838306
H        9.08440573       7.95544044      -1.90463228
H        8.11220245       8.77449614      -0.65479590
H        6.43008495      10.70242455      -4.55781181
C        4.24768248       9.87269713      -5.80291201
C        3.68617246      10.48351046      -6.67815459
Br       2.77825825      11.47114395      -8.09334782
C       -1.79209988      -1.79209988      -1.79209988
C       -3.14573114      -1.93193002      -1.48948667
C       -3.95748650      -2.71509238      -2.30796046
C       -3.41161165      -3.36049367      -3.41975176
C       -2.04279083      -3.25699698      -3.70310621
C       -1.23702354      -2.44612837      -2.89172352
C       -1.40003639      -3.92934538      -4.86989732
O       -0.43743014      -3.39521258      -5.42110098
N       -1.85819103      -5.15418744      -5.32202274
N       -2.80391355      -5.88613521      -4.68248243
C       -3.10257846      -7.02984160      -5.20941470
C       -4.16235040      -7.87680723      -4.60953389
C       -4.82301522      -7.38502022      -3.46832459
C       -5.83751719      -8.14144473      -2.92590792
O       -6.58353518      -7.80623148      -1.84104755
C       -7.47219686      -8.93973877      -1.76036236
O       -7.22798090      -9.93035275      -2.78316510
C       -6.20346328      -9.34869170      -3.46353737
C       -5.57368256      -9.87043625      -4.57481028
C       -4.53915769      -9.12257378      -5.15762477
H       -3.57752768      -1.42893960      -0.62841161
H       -5.01689123      -2.81983469      -2.08600309
H       -4.07039707      -3.93641525      -4.06345154
H       -0.18019296      -2.33063603      -3.12313402
H       -1.35286246      -5.54669614      -6.10971990
H       -2.59033121      -7.38481582      -6.11943018
H       -4.55937880      -6.43375851      -3.01717232
H       -8.50453106      -8.58299206      -1.85695534
H       -7.35188572      -9.41128916      -0.77831961
H       -5.88559261     -10.82867664      -4.97605206
C       -3.90993614      -9.69270345      -6.32065203
C       -3.38296310     -10.17018706      -7.29468735
Br      -2.53089226     -10.94223766      -8.86962010
C       -1.79209988       1.79209988       1.79209988
C       -1.20541619       2.77944889       2.58228275
C       -2.01058709       3.60230017       3.36765208
C       -3.39652871       3.42977922       3.36554915
C       -3.98676290       2.41071266       2.60541846
C       -3.17399184       1.60398623       1.79689737
C       -5.45915350       2.17131082       2.56881477
O       -5.97631863       1.73873133       1.53869374
N       -6.24281020       2.40703562       3.68455539
N       -5.74023348       2.73035513       4.90194258
C       -6.59862061       2.88517229       5.85804186
C       -6.14687466       3.29018039       7.21163647
C       -4.76910563       3.50416482       7.40308958
C       -4.34044817       3.92119092       8.64323076
O       -3.05393710       4.18759864       8.98927846
C       -3.21897587       4.58799320      10.36532891
O       -4.59118387       4.53616327      10.81415161
C       -5.21609883       4.11995804       9.67963548
C       -6.57232390       3.91089249       9.53571270
C       -7.04497316       3.49170590       8.28267718
H       -0.12807671       2.92167923       2.58512296
H       -1.56212955       4.38280137       3.97779808
H       -4.00667140       4.10581771       3.95777475
H       -3.62516159       0.83284636       1.17595506
H       -7.23081370       2.20193419       3.57653061
H       -7.67705619       2.73766834       5.67985268
H       -4.04849861       3.35681623       6.60499480
H       -2.85174914       5.61504375      10.47768557
H       -2.61676280       3.92632899      10.99840269
H       -7.23940382       4.07600987      10.37490762
C       -8.46617849       3.29156621       8.16554693
C       -9.65643796       3.12394922       8.06745034
Br     -11.58098685       2.85292672       7.90883645
C        1.79209988      -1.79209988       1.79209988
C        1.20187867      -2.74964064       2.61562852
C        2.00624863      -3.57290221       3.40138850
C        3.39515753      -3.43041858       3.36628097
C        3.99024639      -2.44061644       2.57203118
C        3.17743935      -1.63379746       1.76363862
C        5.46623321      -2.23387728       2.49916860
O        5.97006770      -1.83442180       1.44925419
N        6.26863421      -2.46283586       3.60293114
N        5.78573185      -2.74943955       4.83735978
C        6.66109287      -2.90251327       5.77822863
C        6.23021210      -3.26898764       7.14949177
C        4.85268296      -3.44909169       7.37458538
C        4.44217745      -3.83047396       8.63221845
O        3.15809382      -4.06168085       9.01103954
C        3.34429853      -4.43638203      10.39161742
O        4.72666294      -4.40471088      10.81012494
C        5.33559888      -4.02615351       9.65393996
C        6.69251586      -3.84949689       9.47691634
C        7.14676042      -3.46717707       8.20541874
H        0.12208700      -2.86849277       2.64429912
H        1.55467483      -4.33047678       4.03757739
H        4.00352128      -4.10680555       3.95993703
H        3.63129331      -0.88586659       1.11680310
H        7.25818867      -2.28143541       3.46965442
H        7.73830683      -2.78211831       5.57415206
H        4.11829176      -3.30311870       6.58889917
H        2.95796515      -5.45266394      10.53384936
H        2.77000398      -3.74864609      11.02284442
H        7.37391606      -4.01120687      10.30519838
C        8.56901773      -3.30027870       8.05399520
C        9.76015822      -3.16050132       7.92717798
Br      11.68613166      -2.93449311       7.72212526
C       -0.00445707       0.01189536      -1.78238275
H       -0.66409135       0.67374010      -2.43557963
H        0.65740317      -0.63156657      -2.45157240
C       -0.90989263      -0.90692880      -0.91072765
C        0.90977584       0.90977584      -0.90977584
C       -0.00465871       1.77757030       0.00794375
H       -0.66225468       2.44313916      -0.64384735
H        0.64322798       2.43503045       0.67728295
C       -1.78241447       0.00034974      -0.00472694
H       -2.45427497      -0.65498947       0.64260836
H       -2.43311707       0.67328779      -0.65473579
C       -0.91132561       0.90220522       0.91563759
C       -0.01476271      -0.02253852       1.78660255
H       -0.67934791      -0.69751639       2.42135241
H        0.63392994       0.61504881       2.47327442
C        0.01484550      -1.77751727      -0.01636693
H        0.67870853      -2.42144646      -0.68295456
H       -0.62264859      -2.45592969       0.64226336
C        1.78714474       0.01002794       0.00389507
H        2.44202412       0.67113390       0.66197326
H        2.45385902      -0.65136977      -0.64189061
C        0.91606151      -0.90478549       0.90901405
