146
Properties=species:S:1:pos:R:3 pbc="F F F"
C        1.79100934       1.79100934      -1.79100934
C        2.21769534       3.03225372      -1.32423023
C        3.03179890       3.83685981      -2.12832525
C        3.36408126       3.43692429      -3.42913328
C        2.94691531       2.17492726      -3.87539180
C        2.17258224       1.34788258      -3.05340265
C        4.14915689       4.30878682      -4.36643781
N        3.93721452       5.55982536      -4.65999999
N        2.98314631       6.25702125      -3.99721525
C        2.49328993       7.46460467      -4.48802867
O        2.72465094       7.93490686      -5.59288228
C        1.63082722       8.20987457      -3.52061371
C        0.92715760       7.55322035      -2.49681138
C        0.17626964       8.28748215      -1.57934903
C        0.10199616       9.67285382      -1.69139049
C        0.77346501      10.32153670      -2.73038450
Br       0.64407971      12.20291145      -2.88818187
C        1.53778202       9.60018031      -3.64727320
C        5.27393510       3.63092740      -5.12646836
H        1.93313102       3.37437569      -0.33275987
H        3.41155575       4.76413570      -1.70610046
H        3.19876189       1.81773233      -4.86920109
H        1.86153703       0.36919695      -3.41616279
H        2.90142883       6.09581354      -3.00840129
H        0.92829094       6.47059097      -2.40873576
H       -0.36130768       7.77733403      -0.78067246
H       -0.48988282      10.23949359      -0.97415487
H        2.06426811      10.10960282      -4.45029165
H        4.87290075       2.92601078      -5.85737199
H        5.93355530       3.10613915      -4.42768499
H        5.86702113       4.37658197      -5.66893576
C       -1.79100934      -1.79100934      -1.79100934
C       -2.75713494      -1.20866001      -2.60838433
C       -3.55968693      -2.01522986      -3.42206717
C       -3.44966195      -3.41079836      -3.36967851
C       -2.45671576      -3.98041277      -2.56010584
C       -1.62030368      -3.17172349      -1.78184028
C       -4.35594999      -4.32213419      -4.14629734
N       -5.65646814      -4.29166495      -4.20890679
N       -6.33756731      -3.27855990      -3.62125558
C       -7.70409659      -3.37165895      -3.37016773
O       -8.38622972      -4.37993858      -3.48627178
C       -8.33359906      -2.08460351      -2.94311293
C       -7.59188151      -1.06895261      -2.31635521
C       -8.20126691       0.13993640      -1.98177031
C       -9.55407668       0.33363504      -2.24579882
C      -10.29869431      -0.68968749      -2.83700441
Br     -12.14307534      -0.42462269      -3.16747499
C       -9.69863602      -1.89888165      -3.18771785
C       -3.68361668      -5.46718016      -4.88053401
H       -2.88256581      -0.12935177      -2.62834900
H       -4.25014879      -1.52643924      -4.10520388
H       -2.32426898      -5.05655354      -2.50487279
H       -0.85204244      -3.63243817      -1.16241615
H       -5.94707194      -2.35589890      -3.70267281
H       -6.54608424      -1.20517271      -2.05636072
H       -7.62234388       0.92975502      -1.50410995
H      -10.02448487       1.27845639      -1.97773716
H      -10.28023705      -2.69009221      -3.65383332
H       -3.28706693      -6.19712301      -4.17209359
H       -2.87426130      -5.08311195      -5.51000618
H       -4.40781124      -5.98155871      -5.52316891
C       -1.79100934       1.79100934       1.79100934
C       -1.33710664       2.19133508       3.04573757
C       -2.14105639       3.00542843       3.85049914
C       -3.43025026       3.36397748       3.43591109
C       -3.86316889       2.97316819       2.16089730
C       -3.04037159       2.19890116       1.33459471
C       -4.36886780       4.15009118       4.30542254
N       -4.68505421       3.92361146       5.54837421
N       -4.04787187       2.94879310       6.24071784
C       -4.56484147       2.44819738       7.43288443
O       -5.67320189       2.68948046       7.88975773
C       -3.62244647       1.55949076       8.17937827
C       -2.59945128       0.85012438       7.52761367
C       -1.70511780       0.07391108       8.26407195
C       -1.83980760      -0.01981104       9.64624391
C       -2.87835987       0.65772045      10.28930589
Br      -3.06734961       0.50201784      12.16580559
C       -3.77211490       1.44715312       9.56596750
C       -5.10096008       5.29679473       3.63357605
H       -0.35554748       1.88618696       3.39853214
H       -1.72753464       3.36433531       4.78992196
H       -4.84733295       3.24587346       1.79248890
H       -3.39259170       1.90855210       0.34575296
H       -3.05803804       2.85419013       6.09341549
H       -2.49454793       0.86646178       6.44660795
H       -0.90692981      -0.46814539       7.75791438
H       -1.14061299      -0.63137429      10.21452693
H       -4.57480223       1.97819960      10.07116074
H       -5.82686987       4.91801034       2.91140331
H       -4.38408641       5.95342792       3.12986510
H       -5.64581147       5.88675818       4.37996920
C        1.79100934      -1.79100934       1.79100934
C        3.15118791      -1.90885413       1.51413725
C        3.96074482      -2.71010169       2.32613745
C        3.40258632      -3.45324807       3.37430445
C        2.03685815      -3.30544494       3.65493129
C        1.23484222      -2.46611868       2.87290655
C        4.21035316      -4.40476355       4.20926481
N        5.02027254      -5.33829312       3.79847422
N        5.30622930      -5.45210613       2.47904737
C        5.87970626      -6.60885960       1.95735742
O        6.03256180      -7.66454713       2.55533115
C        6.34513521      -6.47307118       0.54310911
C        5.77867231      -5.53519811      -0.33668109
C        6.27603208      -5.39948322      -1.63241447
C        7.31996721      -6.21183178      -2.06555852
C        7.85904628      -7.16791326      -1.20157333
Br       9.26059931      -8.28450040      -1.80992668
C        7.37903827      -7.30551119       0.10068606
C        3.99594041      -4.32609109       5.70929936
H        3.59086680      -1.37095982       0.67843996
H        5.03045985      -2.71998108       2.13135098
H        1.56780071      -3.84776942       4.47012518
H        0.17682772      -2.36106996       3.10899908
H        5.44191097      -4.59944402       1.96428867
H        4.93431149      -4.91760987      -0.04430369
H        5.84156493      -4.66538206      -2.31024819
H        7.70038523      -6.10352234      -3.08014193
H        7.80597722      -8.04618567       0.77199968
H        2.99886770      -4.68371026       5.97370557
H        4.12276849      -3.29363285       6.05097809
H        4.72765419      -4.95537771       6.22950695
C       -0.00445707       0.01189536      -1.78238275
H       -0.66409135       0.67374010      -2.43557963
H        0.65740317      -0.63156657      -2.45157240
C       -0.90989263      -0.90692880      -0.91072765
C        0.90977584       0.90977584      -0.90977584
C       -0.00465871       1.77757030       0.00794375
H       -0.66225468       2.44313916      -0.64384735
H        0.64322798       2.43503045       0.67728295
C       -1.78241447       0.00034974      -0.00472694
H       -2.45427497      -0.65498947       0.64260836
H       -2.43311707       0.67328779      -0.65473579
C       -0.91132561       0.90220522       0.91563759
C       -0.01476271      -0.02253852       1.78660255
H       -0.67934791      -0.69751639       2.42135241
H        0.63392994       0.61504881       2.47327442
C        0.01484550      -1.77751727      -0.01636693
H        0.67870853      -2.42144646      -0.68295456
H       -0.62264859      -2.45592969       0.64226336
C        1.78714474       0.01002794       0.00389507
H        2.44202412       0.67113390       0.66197326
H        2.45385902      -0.65136977      -0.64189061
C        0.91606151      -0.90478549       0.90901405
