133
Properties=species:S:1:pos:R:3 pbc="F F F"
C        0.00000000       0.00000000       0.00000000
C        0.88110532       0.88110532      -0.88110532
C        1.30779131       2.12234970      -0.41432620
C        2.12189487       2.92695579      -1.21842123
C        2.45417724       2.52702027      -2.51922925
C        2.03701129       1.26502323      -2.96548778
C        1.26267821       0.43797855      -2.14349862
C        3.23925287       3.39888280      -3.45653378
N        3.02731049       4.64992134      -3.75009597
N        2.07324228       5.34711722      -3.08731122
C        1.58338591       6.55470065      -3.57812465
O        1.81474691       7.02500283      -4.68297826
C        0.72092319       7.29997054      -2.61070969
C        0.01725357       6.64331633      -1.58690736
C       -0.73363438       7.37757812      -0.66944501
C       -0.80790786       8.76294979      -0.78148647
C       -0.13643901       9.41163267      -1.82048048
C        0.62787799       8.69027628      -2.73736918
C        4.36403107       2.72102338      -4.21656433
H        1.02322700       2.46447166       0.57714416
H        2.50165172       3.85423168      -0.79619643
H        2.28885786       0.90782831      -3.95929707
H        0.95163300      -0.54070707      -2.50625876
H        1.99152481       5.18590951      -2.09849726
H        0.01838691       5.56068694      -1.49883173
H       -1.27121170       6.86743001       0.12923156
H       -1.39978685       9.32958957      -0.06425084
H        1.15436408       9.19969880      -3.54038762
H        3.96299673       2.01610676      -4.94746796
H        5.02365127       2.19623512      -3.51778096
H        4.95711710       3.46667795      -4.75903173
C       -0.23489281      10.84323639      -1.94055400
C       -0.31734786      12.04220450      -2.04111558
Br      -0.45067070      13.98083453      -2.20371515
C       -0.88110532      -0.88110532      -0.88110532
C       -0.89828152      -2.26031511      -0.68587058
C       -1.71168315      -3.06757432      -1.48801442
C       -2.45642097      -2.50911496      -2.53489083
C       -2.44702643      -1.11722087      -2.70327500
C       -1.67091358      -0.30325456      -1.86998725
C       -3.26420512      -3.34405397      -3.48641036
N       -2.88255943      -4.40260504      -4.14216333
N       -1.66206649      -4.94081012      -3.90479412
C       -1.08099111      -5.84282073      -4.79239936
O       -1.49670173      -6.11666284      -5.90936344
C        0.14505349      -6.51436079      -4.26229613
C        0.94436730      -5.92170350      -3.27014106
C        2.04978339      -6.60238366      -2.76078848
C        2.37864611      -7.86206288      -3.25311162
C        1.60388138      -8.43541958      -4.26413593
C        0.48868142      -7.77059754      -4.77360734
C       -4.66729365      -2.84951677      -3.78480836
H       -0.29342625      -2.71265286       0.09552460
H       -1.76217481      -4.12961167      -1.26029335
H       -3.02488198      -0.64144634      -3.48965491
H       -1.67982908       0.77630469      -2.01366030
H       -1.35372116      -4.97358961      -2.94862082
H        0.74103360      -4.92214875      -2.89679044
H        2.66309019      -6.14508054      -1.98499638
H        3.24585262      -8.38594913      -2.85395705
H       -0.11550939      -8.22333850      -5.55560261
H       -4.63316014      -1.92650425      -4.36690706
H       -5.20981366      -2.67859783      -2.84925586
H       -5.21497537      -3.59665783      -4.37119359
C        1.96297858      -9.73042187      -4.78145429
C        2.26372248     -10.81498628      -5.21470842
Br       2.74999994     -12.56863521      -5.91524370
C       -0.88110532       0.88110532       0.88110532
C       -1.61446933       0.31082357       1.91917432
C       -2.41611815       1.11912202       2.73203172
C       -2.54461118       2.48870815       2.46710743
C       -1.78187736       3.05159448       1.43405046
C       -0.94185019       2.25177683       0.65052836
C       -3.46991384       3.37868660       3.24606901
N       -4.72606181       3.17677402       3.52449197
N       -5.30762522       1.99571959       3.20432592
C       -6.69247084       1.85382841       3.16991196
O       -7.50741689       2.76172434       3.25358678
C       -7.15625514       0.43881025       3.03653804
C       -6.35354519      -0.55156636       2.44549842
C       -6.79751853      -1.87228973       2.38815995
C       -8.04974067      -2.20793537       2.89472310
C       -8.86152567      -1.21629752       3.45044599
C       -8.42444773       0.10605729       3.52501843
C       -2.89796019       4.71135754       3.69230105
H       -1.55736812      -0.75741470       2.11060109
H       -2.91445682       0.65687632       3.58074669
H       -1.83655577       4.11194726       1.20748021
H       -0.35400743       2.70795506      -0.14477780
H       -4.76377400       1.16287397       3.34928362
H       -5.39113208      -0.31444881       2.00122232
H       -6.16984932      -2.64056064       1.93769807
H       -8.39192763      -3.24041461       2.84254055
H       -9.05657925       0.87342082       3.96445043
H       -2.72966633       5.36371216       2.83319295
H       -1.95644812       4.55295006       4.22826917
H       -3.59922866       5.21731379       4.36628433
C      -10.16365232      -1.56891443       3.95415970
C      -11.25418339      -1.86423110       4.37601993
Br     -13.01747989      -2.34173316       5.05813225
C        0.88110532      -0.88110532       0.88110532
C        0.87027607      -0.71054369       2.26364745
C        1.67178150      -1.52316822       3.07232217
C        2.54065398      -2.46068061       2.49909217
C        2.52246001      -2.63681717       1.10824512
C        1.68504495      -1.85753735       0.30157308
C        3.49350964      -3.28439052       3.31676929
N        4.32429035      -2.87198230       4.23105516
N        4.30514351      -1.57621375       4.62631347
C        5.36665614      -1.01668061       5.33287445
O        6.45367130      -1.54221789       5.52683881
C        5.07777874       0.33907739       5.89290208
C        4.11614318       1.18822518       5.31955926
C        3.83477673       2.42357470       5.90218672
C        4.52526583       2.82931189       7.04057446
C        5.50578156       1.99955651       7.58944909
C        5.78822710       0.75641917       7.02371552
C        3.55714129      -4.76286499       2.98161250
H        0.23219864       0.04158239       2.71993826
H        1.58291868      -1.41822000       4.15094114
H        3.16548990      -3.36577777       0.62471557
H        1.68190304      -2.01183312      -0.77655146
H        3.40455993      -1.14180896       4.72956270
H        3.59202178       0.92067974       4.40656354
H        3.08229108       3.07674867       5.46144433
H        4.30361693       3.79720993       7.48764656
H        6.54727895       0.11085820       7.45802975
H        4.01134075      -4.91473689       2.00049381
H        2.55013393      -5.19246341       2.99507002
H        4.16942715      -5.29233324       3.72106639
C        6.22910646       2.43586411       8.75565523
C        6.83489107       2.80127172       9.73235287
Br       7.81439354       3.39210493      11.31159036
