117
Properties=species:S:1:pos:R:3 pbc="F F F"
C        0.00000000       0.00000000       0.00000000
C        0.88191195       0.88191195      -0.88191195
C        1.93866266       1.58814251      -0.31020629
C        2.76601500       2.36804355      -1.11721901
C        2.52212540       2.44829326      -2.48883988
C        1.42008867       1.79359796      -3.05504116
C        0.61720644       0.97753737      -2.24792395
C        1.07017472       1.90482331      -4.49923617
O        0.60310830       0.93250421      -5.09106784
N        1.24065953       3.10684498      -5.16560307
N        1.64541411       4.25129952      -4.56097872
C        1.86034819       5.26536228      -5.33633355
C        2.40879034       6.51946356      -4.77525069
C        2.87878865       7.48106298      -5.67572094
C        3.48835188       8.63611826      -5.18732581
Cl       4.09360205       9.80550251      -6.29432414
C        3.63067517       8.84748900      -3.81740232
C        3.14711449       7.89386126      -2.91982827
Br       3.36898362       8.21667821      -1.06313040
C        2.53401331       6.72726406      -3.39197032
O        2.07211454       5.81845282      -2.47685680
H        2.13334822       1.53070730       0.75943870
H        3.59814598       2.91460147      -0.67991588
H        3.19845523       3.03538556      -3.10472865
H       -0.21274693       0.42913897      -2.68780820
H        0.98650351       3.10397896      -6.14802394
H        1.68937977       5.21969855      -6.42696990
H        2.79553779       7.32832617      -6.74833841
H        4.11789404       9.74671038      -3.45229986
H        1.71091443       5.04301290      -2.95837082
C       -0.88191195      -0.88191195      -0.88191195
C       -0.33821080      -1.48327263      -2.01552804
C       -1.13127175      -2.31541955      -2.80458626
C       -2.46727677      -2.52904170      -2.46294006
C       -3.03409372      -1.87204089      -1.36259318
C       -2.22297642      -1.07095965      -0.54873170
C       -4.47232533      -2.00559768      -0.99631119
O       -4.80251149      -2.01307553       0.18890667
N       -5.43722437      -2.08969115      -1.98619205
N       -5.16769807      -1.97928736      -3.31070693
C       -6.15869659      -2.18581841      -4.11752902
C       -5.93028872      -2.19413513      -5.57908075
C       -6.95581669      -2.68742465      -6.39233123
C       -6.74589095      -2.79968171      -7.76622328
Cl      -7.99571031      -3.43423697      -8.76348143
C       -5.53297661      -2.42309247      -8.33949740
C       -4.51603545      -1.91646470      -7.52830387
Br      -2.87715138      -1.42362350      -8.34801736
C       -4.70817795      -1.79839577      -6.14667397
O       -3.68486110      -1.29477895      -5.38778411
H        0.70304352      -1.31952147      -2.28813887
H       -0.71170469      -2.79556035      -3.68539830
H       -3.05889516      -3.20702053      -3.07265376
H       -2.64375470      -0.59410830       0.33366276
H       -6.39343951      -2.18495902      -1.66010787
H       -7.17907742      -2.40324405      -3.75372675
H       -7.90287773      -3.00486527      -5.96445937
H       -5.38024181      -2.52705011      -9.40961235
H       -3.95411644      -1.31419467      -4.44398704
C       -0.88191195       0.88191195       0.88191195
C       -0.49322414       1.15078396       2.19300336
C       -1.27870126       1.98214873       2.99042757
C       -2.45571050       2.52746268       2.47608536
C       -2.88323398       2.20416631       1.18132750
C       -2.06980862       1.40318033       0.36967881
C       -4.16725188       2.69816757       0.60881475
O       -4.23459571       2.97921928      -0.58713464
N       -5.28934524       2.81113777       1.41262456
N       -5.32740883       2.41975824       2.71052529
C       -6.41502148       2.68761716       3.35940538
C       -6.50097709       2.39548789       4.80703962
C       -7.57370199       2.94544961       5.51642097
C       -7.64108862       2.77235087       6.89835646
Cl      -8.94396035       3.47365564       7.77581272
C       -6.65932914       2.05612442       7.58011293
C       -5.59760078       1.49477695       6.86842630
Br      -4.27777216       0.53463517       7.83638490
C       -5.51247715       1.65987990       5.48089064
O       -4.45508721       1.09106723       4.82126972
H        0.42325278       0.72732237       2.60054722
H       -0.97724664       2.20406890       4.01134780
H       -3.03623457       3.19906616       3.10326872
H       -2.37152879       1.18495322      -0.65228177
H       -6.12456159       3.16004702       0.95389779
H       -7.28298539       3.17407470       2.87898813
H       -8.34038920       3.52379565       5.00801752
H       -6.71933501       1.93946263       8.65810664
H       -4.51247896       1.32915410       3.87066509
C        0.88191195      -0.88191195       0.88191195
C        2.25683732      -0.92246464       0.65770950
C        3.06915728      -1.70055079       1.48156949
C        2.49921128      -2.44474661       2.51530065
C        1.11017192      -2.45867335       2.69988252
C        0.30270432      -1.64273259       1.89723086
C        0.44279541      -3.29198030       3.73945849
O       -0.55468326      -2.86314823       4.31821539
N        0.92446799      -4.55716078       4.03147880
N        1.94870800      -5.14460225       3.36438211
C        2.35353820      -6.28537111       3.82313471
C        3.53552377      -6.94340563       3.22457520
C        4.09745161      -8.02077438       3.91734658
C        5.26652472      -8.60903508       3.43623615
Cl       5.97501416      -9.91469505       4.30371950
C        5.87841719      -8.14269597       2.27445333
C        5.30765009      -7.07731200       1.57584194
Br       6.17760347      -6.46771219       0.00347657
C        4.13519922      -6.47310648       2.04494199
O        3.60769382      -5.43174719       1.32798315
H        2.70738816      -0.34517708      -0.14794842
H        4.14387434      -1.73005214       1.31873685
H        3.15371423      -3.01863426       3.16622097
H       -0.77172531      -1.61217512       2.06375043
H        0.42213875      -5.06202596       4.75434170
H        1.87153736      -6.77749280       4.68701807
H        3.64791741      -8.38855875       4.83572621
H        6.79491856      -8.60365489       1.91833083
H        2.81901356      -5.09066808       1.80261651
