122
Properties=species:S:1:pos:R:3 pbc="F F F"
C        1.79247216       1.79247216      -1.79247216
C        1.72222973       3.17876526      -1.67431757
C        2.52736599       3.98076427      -2.48211105
C        3.37875806       3.39359326      -3.42210891
C        3.42980699       1.99921893      -3.56249175
C        2.65537703       1.19950510      -2.71321408
C        4.34779619       1.43573835      -4.59581435
O        5.37819552       2.04208550      -4.89250135
N        4.03898826       0.24914999      -5.23868518
N        2.85950262      -0.40478606      -5.07558036
C        2.72326317      -1.52783996      -5.70355569
C        1.52934620      -2.29931685      -5.50774703
C        0.38625357      -2.05501554      -4.77037912
C       -0.43241552      -3.20208610      -4.90168347
C        0.25790516      -4.07213329      -5.71413077
Br      -0.33615567      -5.76682306      -6.21870163
O        1.44653661      -3.52951399      -6.09371245
H        1.05173573       3.64101402      -0.95466597
H        2.49061098       5.06306964      -2.38443741
H        4.00100650       4.02797988      -4.05097569
H        2.72036421       0.11749924      -2.76028180
H        4.71329386      -0.06701329      -5.92888811
H        3.50393734      -1.94052840      -6.36631754
H        0.18467433      -1.15939627      -4.19680502
H       -1.40029575      -3.37235860      -4.45102921
C       -1.79247216      -1.79247216      -1.79247216
C       -1.48810167      -3.14346345      -1.94374743
C       -2.29421221      -3.94514342      -2.75088569
C       -3.38444043      -3.38645227      -3.42356754
C       -3.67552069      -2.02064635      -3.29535064
C       -2.89122876      -1.23325217      -2.44361528
C       -4.84390156      -1.48276940      -4.05267794
O       -5.80488322      -2.21504996      -4.29284919
N       -4.84600094      -0.17470702      -4.50611548
N       -3.77224765       0.65186488      -4.40991415
C       -3.92928575       1.86419654      -4.83388969
C       -2.85368871       2.80245898      -4.68654664
C       -1.57063968       2.66160497      -4.19258245
C       -0.97758066       3.94599646      -4.23559765
C       -1.93174782       4.78917716      -4.75733199
Br      -1.71010831       6.62153799      -5.02715258
O       -3.07143334       4.10246145      -5.04176317
H       -0.63333795      -3.58009838      -1.43397939
H       -2.07313979      -5.00405551      -2.86092274
H       -4.00602909      -4.01945914      -4.05447384
H       -3.13034684      -0.18765418      -2.28014422
H       -5.67644752       0.11486962      -5.01359078
H       -4.87286350       2.22364940      -5.28051238
H       -1.13088205       1.74061750      -3.83181853
H        0.01850403       4.21966872      -3.91654761
C       -1.79247216       1.79247216       1.79247216
C       -3.00026437       2.27838664       1.29666155
C       -3.80193611       3.08454260       2.10376261
C       -3.37955824       3.42248712       3.39241488
C       -2.15067775       2.95790531       3.88293461
C       -1.37515273       2.10811006       3.08483343
C       -1.75019352       3.36804526       5.26111012
O       -2.61686613       3.58734606       6.10857017
N       -0.41401283       3.52532354       5.58748706
N        0.59239143       3.44402644       4.67866191
C        1.79843365       3.56635447       5.13105807
C        2.90370514       3.41244451       4.22903700
C        2.95521633       3.19101769       2.86581579
C        4.32376747       3.06241771       2.52853160
C        5.02231908       3.21840801       3.70381372
Br       6.87820047       3.12657346       3.86734992
O        4.16914311       3.43943508       4.74044309
H       -3.32700888       2.03008450       0.29032234
H       -4.75381700       3.45415236       1.73014868
H       -4.01050164       4.05546361       4.01399682
H       -0.44922108       1.68681534       3.46210883
H       -0.22388260       3.80694681       6.54433928
H        2.02107427       3.75489488       6.19590587
H        2.10045166       3.11672950       2.20580524
H        4.74323959       2.87097112       1.55064333
C        1.79247216      -1.79247216       1.79247216
C        2.92435337      -2.39878972       1.25216946
C        3.72611740      -3.20455089       2.05957303
C        3.37756263      -3.42138847       3.39550913
C        2.22284877      -2.83510599       3.93356291
C        1.45075178      -1.98723431       3.13011012
C        1.89771790      -3.11924952       5.36238148
O        2.80733937      -3.34314851       6.16229449
N        0.58155281      -3.15502623       5.79024440
N       -0.48106533      -3.06235281       4.94900944
C       -1.65608197      -3.06429839       5.49076248
C       -2.81158943      -2.89163762       4.65772818
C       -2.94799424      -2.76096046       3.28865093
C       -4.32561840      -2.55540479       3.03739546
C       -4.94482175      -2.57865400       4.26607039
Br      -6.77296656      -2.33949149       4.54919798
O       -4.03482456      -2.79031388       5.25524574
H        3.19239389      -2.24475558       0.21026625
H        4.62034789      -3.66794522       1.64982493
H        4.00767774      -4.05499618       4.01728815
H        0.58615031      -1.47407589       3.53791905
H        0.44350856      -3.35565818       6.77600195
H       -1.81214495      -3.16252599       6.57934544
H       -2.14104626      -2.79518564       2.56794370
H       -4.80181416      -2.40106923       2.07911978
C       -0.00445707       0.01189536      -1.78238275
H       -0.66409135       0.67374010      -2.43557963
H        0.65740317      -0.63156657      -2.45157240
C       -0.90989263      -0.90692880      -0.91072765
C        0.90977584       0.90977584      -0.90977584
C       -0.00465871       1.77757030       0.00794375
H       -0.66225468       2.44313916      -0.64384735
H        0.64322798       2.43503045       0.67728295
C       -1.78241447       0.00034974      -0.00472694
H       -2.45427497      -0.65498947       0.64260836
H       -2.43311707       0.67328779      -0.65473579
C       -0.91132561       0.90220522       0.91563759
C       -0.01476271      -0.02253852       1.78660255
H       -0.67934791      -0.69751639       2.42135241
H        0.63392994       0.61504881       2.47327442
C        0.01484550      -1.77751727      -0.01636693
H        0.67870853      -2.42144646      -0.68295456
H       -0.62264859      -2.45592969       0.64226336
C        1.78714474       0.01002794       0.00389507
H        2.44202412       0.67113390       0.66197326
H        2.45385902      -0.65136977      -0.64189061
C        0.91606151      -0.90478549       0.90901405
