130
Properties=species:S:1:pos:R:3 pbc="F F F"
C        1.79247216       1.79247216      -1.79247216
C        1.72222973       3.17876526      -1.67431757
C        2.52736599       3.98076427      -2.48211105
C        3.37875806       3.39359326      -3.42210891
C        3.42980699       1.99921893      -3.56249175
C        2.65537703       1.19950510      -2.71321408
C        4.34779619       1.43573835      -4.59581435
O        5.37819552       2.04208550      -4.89250135
N        4.03898826       0.24914999      -5.23868518
N        2.85950262      -0.40478606      -5.07558036
C        2.72326317      -1.52783996      -5.70355569
C        1.52934620      -2.29931685      -5.50774703
C        0.38625357      -2.05501554      -4.77037912
C       -0.43241552      -3.20208610      -4.90168347
C        0.25790516      -4.07213329      -5.71413077
O        1.44653661      -3.52951399      -6.09371245
H        1.05173573       3.64101402      -0.95466597
H        2.49061098       5.06306964      -2.38443741
H        4.00100650       4.02797988      -4.05097569
H        2.72036421       0.11749924      -2.76028180
H        4.71329386      -0.06701329      -5.92888811
H        3.50393734      -1.94052840      -6.36631754
H        0.18467433      -1.15939627      -4.19680502
H       -1.40029575      -3.37235860      -4.45102921
C       -0.20069758      -5.38039894      -6.10364910
C       -0.58477738      -6.47607141      -6.42987070
Br      -1.20580194      -8.24768114      -6.95734343
C       -1.79247216      -1.79247216      -1.79247216
C       -1.68436458      -3.17902461      -1.71192335
C       -2.48964829      -3.98095884      -2.51963418
C       -3.37950332      -3.39249344      -3.42246348
C       -3.46920651      -1.99681086      -3.52550031
C       -2.69348152      -1.19899572      -2.67561897
C       -4.42742719      -1.43139160      -4.52053011
O       -5.44956283      -2.05646552      -4.80675403
N       -4.16524452      -0.22144013      -5.14013878
N       -2.99876218       0.45839716      -4.98993191
C       -2.90705394       1.60002902      -5.59195397
C       -1.72826189       2.39688070      -5.40639518
C       -0.56074551       2.16368326      -4.70455491
C        0.22515815       3.33443068      -4.82677068
C       -0.50755340       4.20653618      -5.59888543
O       -1.69155954       3.64315142      -5.96232695
H       -0.98411610      -3.64177425      -1.02152537
H       -2.42317948      -5.06406973      -2.45086883
H       -4.00161724      -4.02670574      -4.05163909
H       -2.78685115      -0.11818510      -2.69310900
H       -4.86486867       0.09447994      -5.80477996
H       -3.71469712       2.00897748      -6.22400684
H       -0.32197732       1.25942130      -4.15952706
H        1.19975369       3.51822823      -4.39635678
C       -0.09219731       5.53557890      -5.96593417
C        0.25566341       6.64865217      -6.27333749
Br       0.81812478       8.44839752      -6.77038265
C       -1.79247216       1.79247216       1.79247216
C       -2.63075933       2.73821342       1.20633980
C       -3.43309439       3.54272667       2.01442025
C       -3.37351937       3.41597435       3.40496651
C       -2.50915599       2.48440164       3.99796005
C       -1.74397316       1.64595243       3.17817063
C       -2.48104552       2.40983351       5.48846987
O       -3.49410073       2.68621041       6.13247124
N       -1.31965062       2.05431778       6.15285503
N       -0.12627051       1.87494243       5.52908398
C        0.86740925       1.49884788       6.26754026
C        2.13237454       1.21984104       5.65030988
C        2.55927743       1.32113738       4.33975722
C        3.89326289       0.84900190       4.31144283
C        4.19964315       0.49430395       5.60524184
O        3.13948689       0.72344010       6.42678186
H       -2.67075849       2.85055533       0.12610191
H       -4.10233477       4.27177961       1.56400366
H       -4.00101923       4.05099059       4.02795225
H       -1.11190781       0.87676573       3.60947170
H       -1.38165601       2.02751199       7.16600069
H        0.77915110       1.35078472       7.35809286
H        1.96542410       1.67902155       3.50848563
H        4.54328554       0.77056156       3.45109883
C        5.45936577      -0.05429587       6.03621421
C        6.51438345      -0.51374821       6.39715357
Br       8.22025782      -1.25664380       6.98076198
C        1.79247216      -1.79247216       1.79247216
C        2.84170814      -2.51052458       1.22307983
C        3.64360546      -3.31589869       2.03073716
C        3.37595323      -3.42001381       3.39849319
C        2.30252236      -2.72045380       3.96854151
C        1.53318518      -1.87498024       3.15993079
C        2.06028530      -2.88713232       5.43193127
O        3.00705973      -3.12135478       6.18436786
N        0.77776766      -2.80267972       5.94637605
N       -0.33277060      -2.69107593       5.17199160
C       -1.46460774      -2.57537834       5.78820830
C       -2.66180544      -2.37711911       5.02246270
C       -2.88483584      -2.32700204       3.65945096
C       -4.26027144      -2.04242338       3.48502990
C       -4.79217772      -1.94191448       4.75016589
O       -3.83098631      -2.15160726       5.69011412
H        3.04568407      -2.44406814       0.15766352
H        4.47476152      -3.86652101       1.59683551
H        4.00525673      -4.05415044       4.02055490
H        0.73463964      -1.27702246       3.58648314
H        0.69621570      -2.92828634       6.95066665
H       -1.55020611      -2.59106817       6.88886443
H       -2.13426218      -2.46464928       2.89169597
H       -4.79124046      -1.91812487       2.55149045
C       -6.16961876      -1.64509620       5.04707514
C       -7.32322563      -1.39651089       5.29573664
Br      -9.18851036      -0.99456947       5.69780125
C       -0.00445707       0.01189536      -1.78238275
H       -0.66409135       0.67374010      -2.43557963
H        0.65740317      -0.63156657      -2.45157240
C       -0.90989263      -0.90692880      -0.91072765
C        0.90977584       0.90977584      -0.90977584
C       -0.00465871       1.77757030       0.00794375
H       -0.66225468       2.44313916      -0.64384735
H        0.64322798       2.43503045       0.67728295
C       -1.78241447       0.00034974      -0.00472694
H       -2.45427497      -0.65498947       0.64260836
H       -2.43311707       0.67328779      -0.65473579
C       -0.91132561       0.90220522       0.91563759
C       -0.01476271      -0.02253852       1.78660255
H       -0.67934791      -0.69751639       2.42135241
H        0.63392994       0.61504881       2.47327442
C        0.01484550      -1.77751727      -0.01636693
H        0.67870853      -2.42144646      -0.68295456
H       -0.62264859      -2.45592969       0.64226336
C        1.78714474       0.01002794       0.00389507
H        2.44202412       0.67113390       0.66197326
H        2.45385902      -0.65136977      -0.64189061
C        0.91606151      -0.90478549       0.90901405
