190
Properties=species:S:1:pos:R:3 pbc="F F F"
O        6.08657923       3.63704658      -3.84386563
C        5.25369619       3.91576907      -4.69429185
C        5.53160178       3.79361579      -6.14410226
C        4.63760519       4.11516009      -7.09044840
C        4.79861537       3.74137521      -8.45253721
C        5.70867107       2.89074290      -9.07389032
C        5.34637679       2.78125868     -10.43788903
C        4.24780198       3.58420833     -10.59719919
O        3.91376344       4.16456953      -9.42081080
O        3.91643811       4.17686045      -4.48336830
C        3.30160334       3.40211930      -3.48946336
C        3.41795838       2.00476635      -3.55271429
C        2.66672127       1.20003313      -2.69795211
C        1.79162922       1.79162922      -1.79162922
C        1.68133767       3.18042369      -1.71005389
C        2.43741955       3.99490013      -2.56570871
C        2.17852860       5.44633177      -2.48435696
N        2.47016713       6.28081765      -3.43358300
N        1.96662763       7.54591889      -3.27818677
C        0.62108884       7.89123773      -3.19383383
O        0.26933160       9.06863737      -3.13765531
C       -0.41271175       6.82873032      -3.13301127
C       -1.35089664       6.87162832      -2.09511047
C       -2.25231974       5.81914135      -1.93146101
C       -2.21864035       4.72931008      -2.80397149
C       -1.30822407       4.71360878      -3.86086448
Br      -1.22827159       3.21491655      -5.00957532
C       -0.42310704       5.77117535      -4.04953422
H        6.47801237       3.31401176      -6.36389182
H        3.70157192       4.60975870      -6.84290545
H        6.52244626       2.37007155      -8.58856851
H        5.81975201       2.18231038     -11.20265329
H        3.61168417       3.82852418     -11.43638251
H        4.06568471       1.53039082      -4.28562914
H        2.75102781       0.11834003      -2.76953876
H        0.96833430       3.62129450      -1.01746804
H        1.65520343       5.78917427      -1.57148493
H        2.56614383       8.30037108      -3.60155200
H       -1.36163204       7.71112910      -1.40232124
H       -2.97120771       5.84046274      -1.11541445
H       -2.90490633       3.89955175      -2.65280073
H        0.29273018       5.75351440      -4.86794446
O       -3.19321242      -4.46588388      -5.90839514
C       -3.84548030      -4.99703120      -5.02124561
C       -4.04865753      -6.46290677      -4.95775553
C       -4.77858165      -7.06014117      -4.00449086
C       -4.74516378      -8.46402827      -3.78333573
C       -3.91775922      -9.45890194      -4.29664313
C       -4.24068622     -10.67559125      -3.64924702
C       -5.26323518     -10.37890057      -2.78707376
O       -5.57490060      -9.06369824      -2.86054494
O       -4.30900490      -4.39897398      -3.86868797
C       -3.44511644      -3.45861080      -3.28945875
C       -2.11819148      -3.83213919      -3.02510834
C       -1.28965818      -2.99399421      -2.28105412
C       -1.79162922      -1.79162922      -1.79162922
C       -3.10450130      -1.40410107      -2.06321289
C       -3.94148333      -2.24236391      -2.81418116
C       -5.34373759      -1.80389787      -2.96158188
N       -6.31811160      -2.60634890      -3.26010728
N       -7.57491592      -2.07251258      -3.14330478
C       -8.15240085      -1.57474651      -1.97901304
O       -9.32122423      -1.19167238      -1.96272766
C       -7.34312876      -1.46565464      -0.74024643
C       -7.30568923      -0.23411090      -0.07604202
C       -6.45241022      -0.06011138       1.01423899
C       -5.64199127      -1.11408679       1.44143683
C       -5.71566508      -2.35086333       0.80027921
Br      -4.58115622      -3.76066001       1.34559594
C       -6.58352278      -2.54324349      -0.27083626
H       -3.46041550      -7.01261715      -5.68288331
H       -5.37169988      -6.48386005      -3.29867615
H       -3.13530044      -9.31673975      -5.02904612
H       -3.77672046     -11.64186581      -3.78612942
H       -5.84015288     -10.95730457      -2.07913340
H       -1.72823697      -4.78813548      -3.36533223
H       -0.26950497      -3.30301848      -2.06638315
H       -3.48649722      -0.47611141      -1.64448821
H       -5.53767347      -0.73682850      -2.74136066
H       -8.24933333      -2.37977549      -3.83895808
H       -7.92151873       0.59337774      -0.42367730
H       -6.40744804       0.90081627       1.52196230
H       -4.95860165      -0.96229766       2.27345316
H       -6.63317258      -3.50487122      -0.77614524
O       -6.05220126       4.05841425       3.45687593
C       -5.35814536       4.04243750       4.46317424
C       -5.91522705       3.74994461       5.80414816
C       -5.17297200       3.74929063       6.92095105
C       -5.63950854       3.20462739       8.14839186
C       -6.76986407       2.45111671       8.45232352
C       -6.68788101       2.06572788       9.81191562
C       -5.52655044       2.61668897      10.28597010
O       -4.89438210       3.30089161       9.30387007
O       -3.98091307       4.08098807       4.51476571
C       -3.32075684       3.36992878       3.50250039
C       -3.66263155       2.02573942       3.28706805
C       -2.90054466       1.23868937       2.42547248
C       -1.79162922       1.79162922       1.79162922
C       -1.45357607       3.13148572       1.98675346
C       -2.21901440       3.92874815       2.85026584
C       -1.72707288       5.30183606       3.08030840
N       -2.05605978       6.01797547       4.11053252
N       -1.34198925       7.17647729       4.27226674
C        0.03293961       7.27554417       4.46355585
O        0.56772505       8.36162188       4.68172746
C        0.88213276       6.06260950       4.36855311
C        1.99131882       6.09190571       3.51525525
C        2.73265778       4.92919108       3.30174932
C        2.36898747       3.74226914       3.94135955
C        1.28745841       3.73126859       4.82243902
Br       0.76418025       2.11323892       5.64716161
C        0.55809911       4.89200295       5.06369869
H       -6.94882300       3.42562119       5.78147176
H       -4.14197569       4.09440022       6.91786016
H       -7.55059529       2.17201816       7.75847287
H       -7.38193125       1.45328679      10.36949765
H       -5.02669032       2.60550488      11.24439565
H       -4.50059502       1.57140799       3.80970167
H       -3.16378611       0.19356550       2.28155499
H       -0.56494826       3.53495019       1.50719838
H       -0.99695222       5.67954894       2.33936146
H       -1.86628739       7.96926905       4.63251046
H        2.26052950       7.01222859       3.00011920
H        3.58462235       4.94365903       2.62563280
H        2.93387186       2.83357102       3.74774700
H       -0.29077372       4.88015450       5.74326083
O        3.13400822      -4.58465620       5.84882702
C        3.84664630      -5.04731614       4.96979467
C        4.11758406      -6.49887475       4.85286101
C        4.91350507      -7.02122601       3.90848260
C        4.95226952      -8.41398587       3.62627239
C        4.14892399      -9.46522584       4.05915446
C        4.55320853     -10.63689240       3.37542357
C        5.59739859     -10.25858975       2.57322117
O        5.84661911      -8.93586354       2.71666113
O        4.33183515      -4.37914652       3.86568518
C        3.45236984      -3.45163653       3.28917963
C        2.15595009      -3.86934811       2.95014081
C        1.32337807      -3.03499260       2.20633584
C        1.79162922      -1.79162922       1.79162922
C        3.07308893      -1.36086798       2.13785835
C        3.91380338      -2.19528876       2.88893626
C        5.28750677      -1.70432435       3.11738622
N        6.28308420      -2.47693437       3.42454920
N        7.51864734      -1.88520289       3.38688305
C        8.12255706      -1.31173960       2.27186375
O        9.27274239      -0.87872852       2.32415337
C        7.36289232      -1.18213724       1.00400028
C        7.29892927       0.07510301       0.39201589
C        6.48609971       0.26098031      -0.72683678
C        5.74253195      -0.80653899      -1.23442971
C        5.84387837      -2.06642500      -0.64405418
Br       4.79777078      -3.49766069      -1.29921118
C        6.67289819      -2.26916935       0.45553499
H        3.52402137      -7.10503866       5.52685592
H        5.50992332      -6.38919591       3.25511685
H        3.33031999      -9.38946271       4.76130361
H        4.12741466     -11.62725529       3.45004574
H        6.22928267     -10.77963547       1.86767271
H        1.79487874      -4.85536705       3.23145888
H        0.32814165      -3.37743310       1.93333184
H        3.43082131      -0.39963797       1.77663755
H        5.44284830      -0.62117702       2.95183731
H        8.17576778      -2.19411540       4.09818372
H        7.86178929       0.91180549       0.80183449
H        6.42002235       1.24081495      -1.19453793
H        5.08922330      -0.64709934      -2.08887648
H        6.74378862      -3.24939466       0.92100576
C       -0.00445707       0.01189536      -1.78238275
H       -0.66409135       0.67374010      -2.43557963
H        0.65740317      -0.63156657      -2.45157240
C       -0.90989263      -0.90692880      -0.91072765
C        0.90977584       0.90977584      -0.90977584
C       -0.00465871       1.77757030       0.00794375
H       -0.66225468       2.44313916      -0.64384735
H        0.64322798       2.43503045       0.67728295
C       -1.78241447       0.00034974      -0.00472694
H       -2.45427497      -0.65498947       0.64260836
H       -2.43311707       0.67328779      -0.65473579
C       -0.91132561       0.90220522       0.91563759
C       -0.01476271      -0.02253852       1.78660255
H       -0.67934791      -0.69751639       2.42135241
H        0.63392994       0.61504881       2.47327442
C        0.01484550      -1.77751727      -0.01636693
H        0.67870853      -2.42144646      -0.68295456
H       -0.62264859      -2.45592969       0.64226336
C        1.78714474       0.01002794       0.00389507
H        2.44202412       0.67113390       0.66197326
H        2.45385902      -0.65136977      -0.64189061
C        0.91606151      -0.90478549       0.90901405
