117
Properties=species:S:1:pos:R:3 pbc="F F F"
C        0.00000000       0.00000000       0.00000000
C        0.88211495       0.88211495      -0.88211495
C        2.25467091       0.92664506      -0.65935997
C        3.05448780       1.73841461      -1.46466737
C        2.49039852       2.51394410      -2.48564156
N        3.33573006       3.29429648      -3.28619928
C        3.54304233       4.52937890      -2.95692803
C        2.99324817       5.35880501      -1.77641249
O        2.24345086       4.99335072      -0.89970044
N        3.54102898       6.61703437      -1.93504990
C        4.36095351       6.66918046      -3.05591890
C        5.07286130       7.75360598      -3.52203106
C        5.84052971       7.56850548      -4.67926035
C        5.87472334       6.31814329      -5.33196133
Br       6.92837739       6.11722225      -6.89001430
C        5.14858856       5.22863100      -4.85136145
C        4.40198420       5.44046904      -3.71002635
C        1.10690762       2.43970366      -2.73110325
C        0.47013974       3.24660526      -3.82613394
C        0.30570874       1.63085613      -1.90817023
H        2.71079586       0.34068352       0.13275882
H        4.12733400       1.77261211      -1.29666359
H        3.35128123       7.37658526      -1.29782805
H        5.04795353       8.71505760      -3.02125545
H        6.41601449       8.40407574      -5.07419675
H        5.16110425       4.25939405      -5.33789857
H       -0.54308154       2.89193414      -4.04384848
H        1.04433070       3.16458403      -4.75466068
H        0.40716251       4.29840579      -3.53049080
H       -0.76808899       1.58644785      -2.07261935
C       -0.88211495      -0.88211495      -0.88211495
C       -0.37614247      -1.39022264      -2.07431082
C       -1.18834083      -2.19071289      -2.87851605
C       -2.50684092      -2.47924446      -2.50389880
N       -3.27724461      -3.30895370      -3.33002750
C       -4.03438850      -2.76576426      -4.22919650
C       -4.26804443      -1.28043863      -4.57998261
O       -3.76149863      -0.30908683      -4.06591656
N       -5.18659417      -1.29482420      -5.61169488
C       -5.54478930      -2.59533423      -5.94592933
C       -6.42979779      -2.99409961      -6.92460094
C       -6.63270668      -4.37105497      -7.08453389
C       -5.95308377      -5.30147432      -6.27026987
Br      -6.25871096      -7.15055558      -6.52634740
C       -5.06104050      -4.88542301      -5.28211750
C       -4.88110403      -3.52361938      -5.14775618
C       -3.00400102      -1.99301767      -1.28069584
C       -4.40810189      -2.29402535      -0.84075170
C       -2.18557974      -1.17678522      -0.48237015
H        0.63996582      -1.17089280      -2.38779358
H       -0.79548253      -2.59295798      -3.80816918
H       -5.52926740      -0.45045797      -6.04596918
H       -6.95252132      -2.28026187      -7.55148339
H       -7.32448563      -4.72074581      -7.84905554
H       -4.52867453      -5.58395249      -4.64576985
H       -4.55090148      -2.06197693       0.22017733
H       -4.63722589      -3.35680428      -0.96954525
H       -5.11979851      -1.69698661      -1.41927398
H       -2.56873727      -0.77438946       0.45214852
C       -0.88211495       0.88211495       0.88211495
C       -1.33628104       2.10522841       0.39916649
C       -2.13703215       2.90906502       1.21147261
C       -2.47936385       2.50301401       2.50760633
N       -3.30727688       3.33099457       3.27795436
C       -2.76096615       4.18819081       4.08019230
C       -1.27371522       4.48356171       4.37118874
O       -0.30306426       3.95455093       3.87888683
N       -1.28548143       5.48607450       5.32155732
C       -2.58579254       5.85064618       5.64961414
C       -2.98212685       6.81358191       6.55278958
C       -4.35924334       7.01132572       6.71772648
C       -5.29224305       6.24899002       5.98359488
Br      -7.14131959       6.55476843       6.23952592
C       -4.87870932       5.27624622       5.07362546
C       -3.51667140       5.10381986       4.93198833
C       -2.04773956       1.24990310       2.98007187
C       -2.40732446       0.77632433       4.35923015
C       -1.23087863       0.45162766       2.16222882
H       -1.07471449       2.44300828      -0.59900221
H       -2.49726285       3.86296850       0.83637836
H       -0.43945169       5.88207117       5.70417169
H       -2.26628392       7.40058108       7.11740158
H       -4.70701044       7.76476979       7.42250676
H       -5.57924414       4.67959942       4.49955331
H       -2.21316679      -0.29545511       4.47498941
H       -3.47239360       0.93203629       4.55914553
H       -1.81574954       1.31287975       5.10742982
H       -0.87033698      -0.50683899       2.52748021
C        0.88211495      -0.88211495       0.88211495
C        1.60872984      -0.31031675       1.92162935
C        2.41697553      -1.12017877       2.72041548
C        2.51159486      -2.49709530       2.48129403
N        3.31550575      -3.27527079       3.32544926
C        4.54504807      -3.49837573       2.98592546
C        5.34069048      -3.04488552       1.74288967
O        4.95141694      -2.36298749       0.82209759
N        6.60046592      -3.58825910       1.90438824
C        6.68621162      -4.31240438       3.08743686
C        7.78376039      -4.98690299       3.57783495
C        7.63560538      -5.64925440       4.80343576
C        6.40754367      -5.61987819       5.49740610
Br       6.25779625      -6.52765648       7.15016122
C        5.30352850      -4.93508539       4.98996712
C        5.47904154      -4.29202923       3.78140882
C        1.74834061      -3.07771047       1.45166345
C        1.81447884      -4.55256623       1.17583387
C        0.94712134      -2.25476643       0.64284733
H        1.55693708       0.75626242       2.11804590
H        2.98261356      -0.67809802       3.53589812
H        7.34070298      -3.45356745       1.23142412
H        8.72836575      -5.01001726       3.04588357
H        8.48297392      -6.19110696       5.22020610
H        4.35094821      -4.90011951       5.50732915
H        0.99186105      -4.87327601       0.52756403
H        1.73253358      -5.12654065       2.10450118
H        2.75724866      -4.80039246       0.67841797
H        0.37351569      -2.68950128      -0.17203877
