153
Properties=species:S:1:pos:R:3 pbc="F F F"
C        0.00000000       0.00000000       0.00000000
C        0.88155885       0.88155885      -0.88155885
C        0.89479874       2.26109810      -0.68768033
C        1.69975607       3.06538136      -1.49860090
C        2.49956807       2.49163885      -2.49782200
C        2.46610319       1.10426850      -2.69383386
C        1.66011388       0.30009350      -1.88147893
C        3.32100531       3.39972347      -3.34434540
O        2.99992137       4.57630243      -3.47399761
C        4.54197989       2.84596375      -3.98829192
C        5.13649228       3.54047073      -4.96833582
C        6.33280089       3.04409684      -5.64274622
C        7.59803913       3.47007185      -5.23628612
C        8.74056534       3.01710012      -5.90498057
C        8.63381030       2.13910955      -6.99107557
C        7.36679937       1.69802651      -7.37716878
C        6.22251606       2.14678619      -6.70680947
N        9.82731111       1.77707148      -7.64428411
C        9.97625047       1.01188482      -8.78789954
O        9.06905668       0.45438261      -9.39575206
C       11.35359066       0.93894929      -9.24260410
C       11.90299953       0.36839873     -10.37571788
C       13.29649680       0.61187451     -10.32091054
C       13.51722405       1.30905980      -9.15562819
Br      15.18286445       1.89577273      -8.55533409
O       12.34673802       1.51793277      -8.49474714
H        0.28183815       2.72124676       0.08316269
H        1.69985572       4.14434502      -1.35017621
H        3.03628418       0.62878766      -3.48702967
H        1.63897044      -0.77493107      -2.04360942
H        4.93687253       1.89844307      -3.64469088
H        4.75084841       4.49823673      -5.31081071
H        7.70398505       4.16663893      -4.40757926
H        9.71119396       3.37799803      -5.57415310
H        7.22632453       1.01050498      -8.20522359
H        5.24625648       1.80086759      -7.03948060
H       10.68942761       2.16780040      -7.27912548
H       11.34855441      -0.15041155     -11.14705606
H       14.04319826       0.31471333     -11.04427652
C       -0.88155885      -0.88155885      -0.88155885
C       -0.65758314      -2.25573341      -0.93026062
C       -1.46367478      -3.05915594      -1.74090761
C       -2.50043306      -2.49210425      -2.49649161
C       -2.70623868      -1.10647960      -2.45148727
C       -1.89887725      -0.30319467      -1.63961439
C       -3.31346051      -3.39421838      -3.35739529
O       -2.84999068      -4.46507610      -3.73515463
C       -4.69571597      -2.97205880      -3.70846078
C       -5.34241319      -3.60714828      -4.69573736
C       -6.69748441      -3.23209902      -5.09006052
C       -7.79620438      -3.92636539      -4.58182734
C       -9.09151978      -3.58508593      -4.98604031
C       -9.30541126      -2.55162913      -5.90695503
C       -8.20365569      -1.84534396      -6.39299500
C       -6.90696083      -2.18246224      -5.98668865
N      -10.63427973      -2.31002431      -6.30436266
C      -11.09051844      -1.42231594      -7.26320045
O      -10.39477149      -0.63245318      -7.89196668
C      -12.52135869      -1.52337206      -7.49041331
C      -13.33705757      -0.89624378      -8.41381480
C      -14.64858717      -1.38326276      -8.19743192
C      -14.55856527      -2.27210823      -7.15123854
Br     -15.98985320      -3.22094122      -6.42317685
O      -13.27333806      -2.36969440      -6.71638547
H        0.14085809      -2.71096282      -0.34981750
H       -1.27907029      -4.13167072      -1.78363594
H       -3.46916180      -0.62560280      -3.05733691
H       -2.06478909       0.77115589      -1.61401559
H       -5.16018028      -2.16857202      -3.15125418
H       -4.88525012      -4.42238253      -5.25226319
H       -7.65292381      -4.74510652      -3.88017291
H       -9.92607927      -4.15370866      -4.58355716
H       -8.31186831      -1.02951391      -7.10067089
H       -6.06503165      -1.62717660      -6.39439642
H      -11.35282326      -2.89391810      -5.88961213
H      -13.00747294      -0.18119912      -9.15652686
H      -15.54500790      -1.11694779      -8.74023242
C       -0.88155885       0.88155885       0.88155885
C       -1.20815719       0.46513431       2.17028568
C       -2.01820116       1.27244236       2.97309481
C       -2.49511321       2.50098583       2.49292988
C       -2.17280641       2.90213216       1.18926698
C       -1.36178672       2.09334979       0.38654980
C       -3.37060204       3.30912199       3.38535015
O       -3.99909749       2.76438637       4.28673755
C       -3.42795531       4.77946811       3.16881214
C       -4.40371743       5.48874985       3.75283155
C       -4.51564587       6.93328310       3.57071499
C       -3.97971675       7.80600548       4.51867487
C       -4.11630955       9.18911017       4.35722630
C       -4.79482852       9.71750643       3.25166046
C       -5.30749095       8.83968211       2.29482159
C       -5.16832770       7.45549020       2.45229382
N       -4.93754513      11.11697809       3.19414349
C       -5.64239986      11.86578444       2.26785052
O       -6.21763895      11.42081853       1.28073387
C       -5.66545733      13.28229566       2.58739107
C       -6.32816103      14.33494787       1.98400726
C       -6.00686219      15.49798247       2.72443719
C       -5.16201612      15.08946641       3.73042952
Br      -4.40763906      16.20785988       5.01847233
O       -4.95058278      13.74746963       3.66136553
H       -0.84559678      -0.48354201       2.55786745
H       -2.27916941       0.93874974       3.97645780
H       -2.56084754       3.82468304       0.76657093
H       -1.11996589       2.41220455      -0.62452166
H       -2.67259371       5.25277344       2.55463933
H       -5.15941369       5.02064913       4.37983302
H       -3.46537346       7.41782575       5.39500402
H       -3.70061760       9.84284252       5.11988498
H       -5.83350033       9.19440227       1.41415052
H       -5.59259371       6.79351316       1.70049780
H       -4.53015978      11.65341504       3.95277867
H       -6.97229880      14.25505683       1.11784328
H       -6.35178197      16.50669233       2.54371381
C        0.88155885      -0.88155885       0.88155885
C        2.20219532      -0.51295547       1.12842638
C        3.00739350      -1.32384385       1.93250098
C        2.49153510      -2.49889555       2.49859826
C        1.16619650      -2.86755774       2.23045131
C        0.36102273      -2.05509383       1.42556975
C        3.40166111      -3.33356629       3.32984678
O        4.61611404      -3.25800421       3.17610316
C        2.79653592      -4.22155890       4.35814074
C        3.54729351      -5.18072167       4.91728365
C        3.00622925      -6.08732041       5.92609429
C        3.19649106      -5.82452376       7.28338228
C        2.70413081      -6.71170991       8.24680530
C        2.02200973      -7.87469876       7.86728694
C        1.81409887      -8.11925028       6.50864550
C        2.30231060      -7.23071887       5.54308225
N        1.60973095      -8.74250907       8.89642669
C        1.01334742      -9.98573194       8.77695546
O        0.67777054     -10.51719166       7.72422915
C        0.83025638     -10.64897777      10.05590991
C        0.37055117     -11.91695294      10.35961204
C        0.41835526     -12.04198854      11.76893805
C        0.89643061     -10.84231333      12.24316810
Br       1.16245668     -10.42906838      14.04244622
O        1.15446483      -9.99052004      11.21443306
H        2.61680510       0.39521550       0.69833261
H        4.04211645      -1.03714864       2.11511186
H        0.74554442      -3.79317181       2.61338528
H       -0.66501361      -2.35152157       1.22114083
H        1.76451277      -4.06865567       4.64683804
H        4.58797376      -5.33257782       4.63934427
H        3.73986167      -4.93735799       7.60098357
H        2.88063870      -6.48701140       9.29569499
H        1.28401389      -8.99937390       6.15866531
H        2.14149545      -7.45441127       4.49069795
H        1.82448736      -8.46386581       9.84800032
H        0.05140412     -12.65684509       9.63694970
H        0.13875235     -12.90251327      12.36092249
