182
Properties=species:S:1:pos:R:3 pbc="F F F"
C        1.79146287       1.79146287      -1.79146287
C        1.80470276       3.17100212      -1.59758436
C        2.60966009       3.97528538      -2.40850492
C        3.40947210       3.40154287      -3.40772602
C        3.37600721       2.01417252      -3.60373788
C        2.57001790       1.20999753      -2.79138296
C        4.23090934       4.30962749      -4.25424943
O        3.90982539       5.48620646      -4.38390164
C        5.45188391       3.75586778      -4.89819594
C        6.04639631       4.45037475      -5.87823985
C        7.24270491       3.95400086      -6.55265025
C        8.50794315       4.37997588      -6.14619015
C        9.65046936       3.92700414      -6.81488459
C        9.54371433       3.04901357      -7.90097959
C        8.27670339       2.60793053      -8.28707280
C        7.13242008       3.05669022      -7.61671350
N       10.73721514       2.68697550      -8.55418813
C       10.88615449       1.92178884      -9.69780356
O        9.97896070       1.36428664     -10.30565608
C       12.26349468       1.84885331     -10.15250813
C       12.81290356       1.27830276     -11.28562191
C       14.20640082       1.52177853     -11.23081457
C       14.42712808       2.21896382     -10.06553221
O       13.25664204       2.42783680      -9.40465117
H        1.19174218       3.63115078      -0.82674134
H        2.60975974       5.05424904      -2.26008024
H        3.94618820       1.53869168      -4.39693369
H        2.54887447       0.13497295      -2.95351344
H        5.84677655       2.80834710      -4.55459490
H        5.66075243       5.40814076      -6.22071473
H        8.61388907       5.07654295      -5.31748328
H       10.62109798       4.28790206      -6.48405712
H        8.13622855       1.92040901      -9.11512762
H        6.15616050       2.71077162      -7.94938462
H       11.59933163       3.07770442      -8.18902951
H       12.25845843       0.75949247     -12.05696008
H       14.95310229       1.22461735     -11.95418054
C       15.71306623       2.67192867      -9.60208219
C       16.79003943       3.05128673      -9.21394279
Br      18.53141400       3.66467662      -8.58635421
C       -1.79146287      -1.79146287      -1.79146287
C       -2.38256609      -2.93404533      -1.25667783
C       -3.18567335      -3.74068713      -2.06708991
C       -3.40690568      -3.40179050      -3.41004481
C       -2.79434774      -2.25849731      -3.94107257
C       -1.99075203      -1.45167823      -3.12896812
C       -4.25478410      -4.30946609      -4.23053606
O       -4.38615006      -5.48552774      -3.90825569
C       -4.95106046      -3.73990994      -5.41497723
C       -5.48087553      -4.57032426      -6.32381111
C       -6.16914743      -4.06976610      -7.51044249
C       -7.55976174      -3.95327117      -7.52107626
C       -8.21858649      -3.50327873      -8.67049287
C       -7.49835613      -3.17055063      -9.82480074
C       -6.10583371      -3.26636551      -9.79950751
C       -5.44428830      -3.71246461      -8.64907089
N       -8.24118415      -2.78145977     -10.95573486
C       -7.77491260      -2.50223813     -12.22859617
O       -6.59692727      -2.48381396     -12.56816219
C       -8.84392972      -2.24386448     -13.17706193
C       -8.80913819      -2.02586111     -14.54182893
C      -10.14950885      -1.84818452     -14.96130055
C      -10.92254566      -1.96026333     -13.82881512
O      -10.14354386      -2.20479257     -12.74079358
H       -2.22218758      -3.20991745      -0.21752927
H       -3.63805735      -4.63828899      -1.64774269
H       -2.90505315      -1.98903495      -4.98772549
H       -1.51760073      -0.56842161      -3.55133852
H       -5.02971535      -2.66492590      -5.51507730
H       -5.41462079      -5.65147055      -6.22351659
H       -8.14116268      -4.22417914      -6.64257349
H       -9.30351987      -3.43681109      -8.65272620
H       -5.49752397      -3.01242903     -10.66181217
H       -4.35961084      -3.79439085      -8.66231506
H       -9.25070942      -2.75722273     -10.85813341
H       -7.91432170      -2.01000096     -15.15058832
H      -10.50320141      -1.66261400     -15.96608477
C      -12.35700970      -1.84031849     -13.78974890
C      -13.55837332      -1.73986469     -13.75703093
Br     -15.50087670      -1.57743938     -13.70412875
C       -1.79146287       1.79146287       1.79146287
C       -2.66321196       1.20422835       2.70584893
C       -3.47131801       2.01370622       3.50842616
C       -3.40269297       3.41083212       3.40521590
C       -2.53327889       3.98986332       2.47077540
C       -1.72471744       3.17868692       1.66799403
C       -4.30187025       4.22173621       4.27117980
O       -5.33493176       3.73093933       4.71406239
C       -3.89202905       5.61289798       4.60102060
C       -4.79359002       6.45225684       5.12916404
C       -4.45182207       7.83139079       5.46614316
C       -4.09328257       8.16892123       6.77190537
C       -3.79707312       9.49682272       7.09846226
C       -3.86149094      10.50448889       6.12772766
C       -4.19731342      10.15618794       4.81820537
C       -4.49005261       8.82740653       4.48836465
N       -3.60454901      11.82226848       6.55156128
C       -3.70088885      12.98998422       5.81487383
O       -3.96914083      13.05926516       4.62049743
C       -3.47061829      14.18127185       6.61296598
C       -3.56859154      15.52122664       6.28701004
C       -3.25049200      16.25064722       7.45785470
C       -2.96985925      15.31508048       8.42668438
O       -3.10413245      14.05637837       7.92861918
H       -2.72745575       0.12310047       2.79907807
H       -4.15847341       1.55048293       4.21513268
H       -2.48573564       5.06609109       2.32998685
H       -1.05570401       3.63766169       0.94399517
H       -2.86928477       5.91883686       4.42159692
H       -5.81997789       6.14776002       5.32187001
H       -4.05524892       7.40618364       7.54648275
H       -3.53501704       9.73079284       8.12724729
H       -4.25287170      10.89442333       4.02447016
H       -4.76588810       8.58638653       3.46404212
H       -3.37890293      11.95550631       7.53165633
H       -3.84788465      15.91055850       5.31646784
H       -3.23061734      17.32524684       7.57603600
C       -2.58920170      15.61523954       9.78263584
C       -2.27040100      15.86662275      10.91824519
Br      -1.75492723      16.27308814      12.75442946
C        1.79146287      -1.79146287       1.79146287
C        2.39315768      -1.25324780       2.92688376
C        3.20235373      -2.06168806       3.72940861
C        3.40377896      -3.41105738       3.40390465
C        2.80592598      -3.93732301       2.25066863
C        1.99601168      -3.12726481       1.44812189
C        4.29206933      -4.21846143       4.28425549
O        5.13975200      -3.66420555       4.97597593
C        4.09489871      -5.69224083       4.31880809
C        5.04210461      -6.46590483       4.86700147
C        4.90781932      -7.91891715       4.92261956
C        4.42150433      -8.53738486       6.07521998
C        4.32382000      -9.93179307       6.13674502
C        4.71631329     -10.72575107       5.05164313
C        5.17918170     -10.09959902       3.89292600
C        5.27383530      -8.70427122       3.82771727
N        4.64013813     -12.12191518       5.21632546
C        5.05691010     -13.10880737       4.34002943
O        5.51201624     -12.91950507       3.21738211
C        4.92679113     -14.44560721       4.89245778
C        5.31369913     -15.67380898       4.38932012
C        4.95802381     -16.64253641       5.35843370
C        4.36875327     -15.95122725       6.39164359
O        4.34771315     -14.61774369       6.12367316
H        2.24607943      -0.20979201       3.19376285
H        3.67871968      -1.63457440       4.61079495
H        2.97559121      -4.96488210       1.94134028
H        1.53914054      -3.54436296       0.55385736
H        3.18371539      -6.11289494       3.91310822
H        5.95506559      -6.04849630       5.28604603
H        4.12877340      -7.94196523       6.93717668
H        3.95473939     -10.38490139       7.05341639
H        5.48743300     -10.66508008       3.01925209
H        5.65435181      -8.24301982       2.91894511
H        4.29565632     -12.46280200       6.10760725
H        5.80325369     -15.83424689       3.43741041
H        5.11483191     -17.71108066       5.30598761
C        3.84655043     -16.54581758       7.59470907
C        3.40920556     -17.04378697       8.60227641
Br       2.70205589     -17.84896137      10.23142758
C       -0.00445707       0.01189536      -1.78238275
H       -0.66409135       0.67374010      -2.43557963
H        0.65740317      -0.63156657      -2.45157240
C       -0.90989263      -0.90692880      -0.91072765
C        0.90977584       0.90977584      -0.90977584
C       -0.00465871       1.77757030       0.00794375
H       -0.66225468       2.44313916      -0.64384735
H        0.64322798       2.43503045       0.67728295
C       -1.78241447       0.00034974      -0.00472694
H       -2.45427497      -0.65498947       0.64260836
H       -2.43311707       0.67328779      -0.65473579
C       -0.91132561       0.90220522       0.91563759
C       -0.01476271      -0.02253852       1.78660255
H       -0.67934791      -0.69751639       2.42135241
H        0.63392994       0.61504881       2.47327442
C        0.01484550      -1.77751727      -0.01636693
H        0.67870853      -2.42144646      -0.68295456
H       -0.62264859      -2.45592969       0.64226336
C        1.78714474       0.01002794       0.00389507
H        2.44202412       0.67113390       0.66197326
H        2.45385902      -0.65136977      -0.64189061
C        0.91606151      -0.90478549       0.90901405
