165
Properties=species:S:1:pos:R:3 pbc="F F F"
C        0.00000000       0.00000000       0.00000000
C        0.88174752       0.88174752      -0.88174752
C        2.09243183       0.38242450      -1.36814973
C        2.90003660       1.18653371      -2.17400531
C        2.48682065       2.48046270      -2.50290282
C        1.26427636       2.97434417      -2.02032313
C        0.46695568       2.17437376      -1.19954202
C        3.28256052       3.34625580      -3.40080559
O        2.76920429       4.11198285      -4.20319935
O        4.62759374       3.16013182      -3.14181558
C        5.49246769       4.01403484      -3.84386582
C        5.33263581       5.40218925      -3.74134900
C        6.20797044       6.25736161      -4.41231895
C        7.24444672       5.72444343      -5.17498974
C        7.43100627       4.34361880      -5.26104366
C        6.56262446       3.47804454      -4.57548148
C        6.89165586       2.02056890      -4.52342725
S        8.31813251       1.57622073      -3.71870288
N        6.00039724       1.09965797      -5.11294272
C        6.32142435      -0.34385899      -5.19149556
C        5.06262754      -1.21469122      -5.21637431
O        4.16632056      -0.80857307      -6.25676165
C        3.76573214       0.55442980      -6.06685198
C        4.97295436       1.50013351      -6.09489081
H        2.40908283      -0.62962647      -1.12805243
H        3.83923766       0.78691061      -2.55697400
H        0.93428896       3.97536260      -2.28086246
H       -0.47386112       2.56487349      -0.82056894
H        4.53075929       5.82636389      -3.14237179
H        6.07454921       7.33273558      -4.32628095
H        8.26877796       3.94345421      -5.82668606
H        6.94576529      -0.66681728      -4.35631658
H        6.89052015      -0.48307644      -6.11933855
H        5.33706376      -2.25894002      -5.39743462
H        4.53855495      -1.17144002      -4.25410447
H        3.06843822       0.81116171      -6.86985108
H        3.22348642       0.63303262      -5.11867040
H        5.45700541       1.45041401      -7.07757951
H        4.64020614       2.52722421      -5.94509759
C        8.15290381       6.61164123      -5.85409635
C        8.91373662       7.35466939      -6.42284813
Br      10.14393893       8.55608307      -7.34247165
C       -0.88174752      -0.88174752      -0.88174752
C       -0.38527691      -2.09626721      -1.36146194
C       -1.18924028      -2.90367588      -2.16765946
C       -2.49107398      -2.50108873      -2.47802345
C       -2.98941195      -1.28453672      -1.98499499
C       -2.17683356      -0.47026317      -1.19377472
C       -3.39767989      -3.35170611      -3.28023591
O       -4.59827715      -3.42308272      -3.06302661
O       -2.67462545      -3.97477476      -4.28014093
C       -3.43923799      -4.71958743      -5.19154294
C       -4.48697833      -4.10202980      -5.88716593
C       -5.23161903      -4.82874193      -6.81729005
C       -4.92203692      -6.16551917      -7.05632380
C       -3.86191165      -6.78329578      -6.39046130
C       -3.09888367      -6.05279921      -5.46446759
C       -1.85645581      -6.67098700      -4.90820920
S       -0.60286062      -7.00933825      -6.00085725
N       -1.77875017      -6.91351454      -3.52073322
C       -0.62325383      -7.62181840      -2.92398869
C       -0.38377495      -7.21194855      -1.46858713
O       -1.56973566      -7.36422931      -0.68054417
C       -2.62699518      -6.55253391      -1.20748483
C       -2.96989337      -6.94921500      -2.64887032
H        0.62115307      -2.42047628      -1.10818557
H       -0.79796702      -3.85410427      -2.53105097
H       -4.00332634      -0.97188942      -2.21529827
H       -2.56395962       0.47508992      -0.82271161
H       -4.73046379      -3.05719596      -5.71183523
H       -6.04265284      -4.33988505      -7.35102785
H       -3.60621017      -7.81531468      -6.61739338
H        0.29564692      -7.44484639      -3.48606513
H       -0.85716068      -8.69262260      -2.97699898
H        0.39563890      -7.84248574      -1.02871152
H       -0.04299536      -6.17150254      -1.40672150
H       -3.50107073      -6.68532928      -0.56305100
H       -2.32689297      -5.50107586      -1.14722060
H       -3.33025006      -7.98466050      -2.67008838
H       -3.77281627      -6.31504746      -3.02466422
C       -5.68485991      -6.90674007      -8.02704140
C       -6.32372417      -7.52751258      -8.84001739
Br      -7.35671363      -8.53124922     -10.15453080
C       -0.88174752       0.88174752       0.88174752
C       -2.11549341       0.40067383       1.32683882
C       -2.92313876       1.20482674       2.13261011
C       -2.48736460       2.48008327       2.50273830
C       -1.24198855       2.95533808       2.06161703
C       -0.44415844       2.15592810       1.24078491
C       -3.28392884       3.34340180       3.40229127
O       -2.77221154       4.07703967       4.23513528
O       -4.62629307       3.19638117       3.10686691
C       -5.48745471       4.05416952       3.80874413
C       -5.29214393       5.44005799       3.74397213
C       -6.16297143       6.30011066       4.41456892
C       -7.23015322       5.77462831       5.13909836
C       -7.45159973       4.39710982       5.18695917
C       -6.58761270       3.52717862       4.50135915
C       -6.94990375       2.07982084       4.40592741
S       -8.36649720       1.68971487       3.55684405
N       -6.09548941       1.12365071       4.99385782
C       -6.45263571      -0.31306330       5.02948851
C       -5.21592417      -1.21470221       5.06308867
O       -4.33585401      -0.85547957       6.13413469
C       -3.89839313       0.50147837       5.98714242
C       -5.08306787       1.47542588       6.00948493
H       -2.45021077      -0.59734079       1.05463880
H       -3.88065992       0.81923360       2.48322875
H       -0.89470425       3.94151411       2.35429567
H        0.51466265       2.53226857       0.89397539
H       -4.46601091       5.85868574       3.17479832
H       -6.00190945       7.37365263       4.35800366
H       -8.31222152       4.00414831       5.72254840
H       -7.06392498      -0.60070040       4.17204001
H       -7.04736077      -0.46041513       5.93983662
H       -5.51949659      -2.25595940       5.21202116
H       -4.66764215      -1.16134187       4.11491913
H       -3.21498570       0.72191383       6.81255148
H       -3.33145020       0.58939062       5.05434861
H       -5.59200405       1.41413785       6.97885704
H       -4.72238919       2.49736699       5.89277177
C       -8.13351954       6.66730229       5.81781956
C       -8.89008883       7.41491675       6.38624856
Br     -10.11339738       8.62374610       7.30535018
C        0.88174752      -0.88174752       0.88174752
C        0.37528551      -2.08240799       1.38531255
C        1.17923254      -2.88978504       2.19155804
C        2.49075185      -2.50126761       2.47816671
C        2.99892193      -1.29878593       1.96123580
C        2.18666713      -0.48421677       1.16998755
C        3.39666673      -3.35334237       3.27961282
O        4.59298925      -3.44458403       3.04681320
O        2.67916924      -3.95227552       4.29809637
C        3.44611864      -4.69505813       5.20919159
C        4.51198587      -4.08270372       5.88148447
C        5.25948117      -4.80684928       6.81132055
C        4.93479553      -6.13570430       7.07338006
C        3.85696090      -6.74769126       6.43101657
C        3.09119238      -6.01944641       5.50551169
C        1.83262497      -6.62776432       4.97526272
S        0.58993821      -6.93329596       6.08982194
N        1.73207891      -6.88837771       3.59254131
C        0.55860859      -7.58857656       3.02187577
C        0.30440602      -7.19558775       1.56431686
O        1.47695320      -7.37542164       0.76213431
C        2.55265763      -6.57143828       1.26291801
C        2.91024517      -6.95288823       2.70484529
H       -0.63899946      -2.39592224       1.15058601
H        0.77997224      -3.82949551       2.57365452
H        4.02020687      -0.99725468       2.17305248
H        2.58160293       0.45037136       0.78034974
H        4.76743764      -3.04392388       5.68813346
H        6.08463008      -4.32208775       7.32684791
H        3.59019810      -7.77277203       6.67594810
H       -0.34976350      -7.39093961       3.59408848
H        0.77837763      -8.66172430       3.08668033
H       -0.48977338      -7.82114573       1.14418600
H       -0.02276002      -6.15141334       1.49256608
H        3.41566817      -6.72541850       0.60836433
H        2.26633613      -5.51680334       1.19204997
H        3.25648266      -7.99290138       2.73561490
H        3.72707894      -6.32491883       3.06053016
C        5.70083892      -6.87404881       8.04375365
C        6.34240025      -7.49241235       8.85644153
Br       7.37975067      -8.49225388      10.17048911
