154
Properties=species:S:1:pos:R:3 pbc="F F F"
C        1.79086502       1.79086502      -1.79086502
C        1.39850418       3.09978076      -2.07074383
C        2.21411705       3.90570648      -2.87096719
C        3.41569150       3.41716601      -3.38956860
O        4.09646544       4.20543580      -4.08197019
C        5.22219440       3.87579100      -4.56288964
N        5.86297894       4.82092715      -5.28079321
C        5.64372958       6.14214147      -5.05601825
C        5.37527953       6.68610203      -3.78112792
C        5.20296207       8.06003827      -3.57482015
C        5.31425989       8.94544040      -4.63842187
C        5.60203160       8.45447206      -5.90706717
C        5.76866157       7.07691848      -6.11079233
C        5.73205942       2.57037987      -4.39916603
C        5.00014245       1.66060032      -3.64735695
C        3.80479674       2.09586150      -3.10995232
C        2.98497805       1.28030684      -2.30591404
C        7.02605466       2.08883766      -4.96146807
O        7.37718930       0.92555638      -4.78940290
N        7.81589167       2.94930915      -5.66166886
H        0.46853688       3.50163493      -1.67311273
H        1.93580711       4.92906086      -3.10499447
H        5.30527183       6.03858961      -2.91033925
H        4.99344767       8.43280214      -2.57646285
H        5.18960799      10.01203583      -4.48023628
H        5.70362325       9.14881520      -6.73614817
H        5.36515338       0.64951649      -3.48414276
H        3.28136334       0.25666090      -2.08016701
H        7.53978674       3.91650362      -5.83869150
H        8.68572935       2.61970058      -6.05554820
C        6.08054988       6.66224933      -7.45406266
C        6.34175634       6.31496391      -8.57905156
Br       6.76410511       5.75343276     -10.39806346
C       -1.79086502      -1.79086502      -1.79086502
C       -2.80083518      -1.21025870      -2.55793489
C       -3.59916393      -2.02108778      -3.37053901
C       -3.39542750      -3.40200280      -3.42499580
O       -4.13999701      -4.05525876      -4.18861566
C       -4.00999950      -5.30670524      -4.34417029
N       -4.86695616      -5.89196331      -5.20577983
C       -5.42346064      -5.19117760      -6.22725107
C       -4.75698648      -4.16051907      -6.92500393
C       -5.34046100      -3.49044935      -8.00691013
C       -6.60976241      -3.84348782      -8.44487192
C       -7.29204792      -4.87005529      -7.80146762
C       -6.70643165      -5.53536670      -6.71457403
C       -3.05871121      -6.03956075      -3.60333336
C       -2.22071291      -5.35284430      -2.73454251
C       -2.38040572      -3.98397371      -2.64623113
C       -1.57543891      -3.17082216      -1.82493787
C       -2.86494576      -7.51476848      -3.69664615
O       -2.02826221      -8.07156110      -2.99232527
N       -3.61846209      -8.23725602      -4.57115157
H       -2.97355596      -0.13600655      -2.53372204
H       -4.39218311      -1.59773619      -3.97994314
H       -3.75041764      -3.86441422      -6.63936884
H       -4.79138222      -2.70045235      -8.51087810
H       -7.06146981      -3.33164208      -9.28876821
H       -8.27897389      -5.15588580      -8.15372694
H       -1.46391924      -5.87798127      -2.15691212
H       -0.78331455      -3.61299616      -1.22188055
H       -4.33650356      -7.80425992      -5.15421838
H       -3.49800074      -9.23879332      -4.62418408
C       -7.47988685      -6.59541470      -6.12156031
C       -8.12765559      -7.48320491      -5.62491132
Br      -9.17504285      -8.91868658      -4.82187191
C       -1.79086502       1.79086502       1.79086502
C       -3.12644281       1.99705650       1.44552946
C       -3.93170268       2.79772136       2.26136668
C       -3.41600180       3.38955537       3.41686894
O       -4.20458474       4.07735948       4.10192721
C       -3.84903121       4.62144770       5.19039613
N       -4.79701901       5.32625069       5.84142960
C       -6.11506699       5.03591823       5.69090408
C       -6.61274115       3.72835681       5.50141152
C       -7.98223453       3.45629907       5.39928689
C       -8.90850819       4.48514643       5.50446753
C       -8.46262572       5.78507815       5.71586695
C       -7.08964912       6.05445929       5.81226397
C       -2.51711420       4.53626622       5.64822489
C       -1.60678747       3.79206537       4.90924688
C       -2.06820897       3.18400849       3.75839310
C       -1.25334783       2.37975880       2.93809232
C       -2.00640745       5.17552914       6.89442380
O       -0.82273612       5.06891522       7.20049724
N       -2.86275982       5.87289340       7.69121646
H       -3.54943942       1.54172874       0.55211638
H       -4.97536753       2.97537350       2.01912141
H       -5.93072113       2.88366719       5.43981237
H       -8.31882266       2.43465342       5.24923659
H       -9.97135415       4.27632042       5.43420553
H       -9.18818903       6.58755011       5.81284749
H       -0.57482791       3.68842449       5.23556023
H       -0.20899075       2.21118725       3.19801326
H       -3.84774297       5.99613739       7.45110150
H       -2.51426437       6.31872813       8.52798564
C       -6.72221249       7.42669919       6.04795019
C       -6.41448432       8.57595010       6.24533739
Br      -5.91691389      10.43419163       6.56449581
C        1.79086502      -1.79086502       1.79086502
C        1.30285677      -2.25314181       3.01303020
C        2.11093687      -3.06773003       3.81212382
C        3.39695130      -3.42530585       3.40016897
O        4.05013030      -4.17033052       4.16341062
C        5.20896242      -4.58812280       3.86378982
N        5.80249571      -5.39613369       4.76606990
C        5.06752574      -6.15482913       5.61953444
C        3.82600049      -6.73557657       5.28093242
C        3.11615221      -7.55433090       6.16733738
C        3.63554187      -7.83970843       7.42287185
C        4.86733916      -7.30811308       7.78811858
C        5.57298126      -6.48395133       6.89943979
C        5.85141181      -4.17156305       2.67863045
C        5.16469721      -3.33355384       1.80984867
C        3.88719656      -2.95281727       2.17059673
C        3.07698571      -2.13045701       1.36375622
C        7.22419355      -4.58362059       2.26854625
O        7.71300995      -4.14899865       1.23013997
N        7.92793775      -5.44799889       3.05093303
H        0.30226256      -1.99019502       3.35082696
H        1.75804864      -3.44397684       4.76783697
H        3.38843403      -6.56571617       4.30005049
H        2.16205044      -7.97588899       5.86477324
H        3.09163852      -8.48102820       8.10921338
H        5.28021966      -7.54357160       8.76479538
H        5.61791816      -3.00212465       0.87876982
H        3.44720903      -1.76390211       0.40708011
H        7.55528216      -5.80914200       3.93055770
H        8.86380444      -5.71596205       2.78121164
C        6.84684283      -5.99275509       7.35726394
C        7.91370190      -5.58137825       7.74069167
Br       9.63872278      -4.91621668       8.36066187
C       -0.00445707       0.01189536      -1.78238275
H       -0.66409135       0.67374010      -2.43557963
H        0.65740317      -0.63156657      -2.45157240
C       -0.90989263      -0.90692880      -0.91072765
C        0.90977584       0.90977584      -0.90977584
C       -0.00465871       1.77757030       0.00794375
H       -0.66225468       2.44313916      -0.64384735
H        0.64322798       2.43503045       0.67728295
C       -1.78241447       0.00034974      -0.00472694
H       -2.45427497      -0.65498947       0.64260836
H       -2.43311707       0.67328779      -0.65473579
C       -0.91132561       0.90220522       0.91563759
C       -0.01476271      -0.02253852       1.78660255
H       -0.67934791      -0.69751639       2.42135241
H        0.63392994       0.61504881       2.47327442
C        0.01484550      -1.77751727      -0.01636693
H        0.67870853      -2.42144646      -0.68295456
H       -0.62264859      -2.45592969       0.64226336
C        1.78714474       0.01002794       0.00389507
H        2.44202412       0.67113390       0.66197326
H        2.45385902      -0.65136977      -0.64189061
C        0.91606151      -0.90478549       0.90901405
