133
Properties=species:S:1:pos:R:3 pbc="F F F"
C        0.00000000       0.00000000       0.00000000
C        0.88096100       0.88096100      -0.88096100
C        0.48860015       2.18987674      -1.16083981
C        1.30421303       2.99580246      -1.96106317
C        2.50578747       2.50726198      -2.47966458
O        3.18656142       3.29553178      -3.17206617
C        4.31229037       2.96588697      -3.65298562
N        4.95307491       3.91102313      -4.37088918
C        4.73382555       5.23223745      -4.14611422
C        4.46537550       5.77619801      -2.87122390
C        4.29305805       7.15013424      -2.66491613
C        4.40435586       8.03553637      -3.72851785
C        4.69212757       7.54456803      -4.99716315
C        4.85875754       6.16701446      -5.20088831
C        4.82215539       1.66047584      -3.48926201
C        4.09023843       0.75069629      -2.73745293
C        2.89489272       1.18595747      -2.20004829
C        2.07507403       0.37040282      -1.39601002
C        6.11615063       1.17893364      -4.05156405
O        6.46728528       0.01565236      -3.87949888
N        6.90598764       2.03940513      -4.75176483
H       -0.44136714       2.59173091      -0.76320871
H        1.02590309       4.01915684      -2.19509045
H        4.39536781       5.12868559      -2.00043523
H        4.08354365       7.52289812      -1.66655883
H        4.27970397       9.10213181      -3.57033226
H        4.79371923       8.23891118      -5.82624415
H        4.45524936      -0.26038754      -2.57423874
H        2.37145932      -0.65324312      -1.17026299
H        6.62988272       3.00659960      -4.92878747
H        7.77582533       1.70979656      -5.14564418
C        5.17064586       5.75234530      -6.54415864
C        5.43185232       5.40505989      -7.66914754
Br       5.85420108       4.84352874      -9.48815944
C       -0.88096100      -0.88096100      -0.88096100
C       -1.88591936      -0.29947386      -1.65392348
C       -2.68424171      -1.11035582      -2.46648112
C       -2.48543844      -2.49220857      -2.51506702
O       -3.22959806      -3.14553659      -3.27902472
C       -3.10367721      -4.39802528      -3.42946048
N       -3.95960690      -4.98330438      -4.29207594
C       -4.50971725      -4.28426395      -5.31819603
C       -3.83683846      -3.25868040      -6.01727855
C       -4.41380885      -2.59048028      -7.10381928
C       -5.68278322      -2.94044180      -7.54518506
C       -6.37125671      -3.96207778      -6.90052426
C       -5.79214537      -4.62550905      -5.80900589
C       -2.15786859      -5.13163972      -2.68238493
C       -1.32054652      -4.44480676      -1.81303437
C       -1.47547689      -3.07503552      -1.73038607
C       -0.67054011      -2.26182341      -0.90912334
C       -1.96924272      -6.60789137      -2.76951423
O       -1.13724775      -7.16515673      -2.06003203
N       -2.72219575      -7.33082898      -3.64413287
H       -2.05473510       0.77549302      -1.63433039
H       -3.47342026      -0.68633859      -3.08039152
H       -2.83024063      -2.96524502      -5.72900297
H       -3.85993571      -1.80440010      -7.60866478
H       -6.12945758      -2.43006684      -8.39264361
H       -7.35792707      -4.24555929      -7.25538820
H       -0.56785360      -4.97059192      -1.23065503
H        0.11769718      -2.70468307      -0.30149330
H       -3.43645931      -6.89734710      -4.23146337
H       -2.60526178      -8.33299561      -3.69300868
C       -6.57172515      -5.68047481      -5.21494983
C       -7.22462322      -6.56400864      -4.71742788
Br      -8.28030418      -7.99260811      -3.91297697
C       -0.88096100       0.88096100       0.88096100
C       -2.19080168       0.49002224       1.15849278
C       -2.99073652       1.29642413       1.97391800
C       -2.49343712       2.48453171       2.51474521
O       -3.26579506       3.14084113       3.24752318
C       -2.89925639       4.20984566       3.82206091
N       -3.82222307       4.81654457       4.59621958
C       -4.82628736       4.10967611       5.17621375
C       -4.68345572       2.78528105       5.64406063
C       -5.72432422       2.10087099       6.28291320
C       -6.94480685       2.72735604       6.49624719
C       -7.12052508       4.04016030       6.07317337
C       -6.07722430       4.72070492       5.42873109
C       -1.61548044       4.75297483       3.60343798
C       -0.73169057       4.06101707       2.78568001
C       -1.17489241       2.87788015       2.22812592
C       -0.36663744       2.06928475       1.40556468
C       -1.11738462       6.02151884       4.20774486
O        0.00778629       6.43124829       3.93897451
N       -1.91703970       6.71785044       5.06226747
H       -2.59652884      -0.43399030       0.75103394
H       -4.01376301       1.01761006       2.20877731
H       -3.73919666       2.25902454       5.52626741
H       -5.56989997       1.08080331       6.62229731
H       -7.75100026       2.20233529       6.99883248
H       -8.07056052       4.53487960       6.25343443
H        0.27210517       4.43723346       2.60397227
H        0.65800434       2.36413892       1.18234460
H       -2.86516073       6.41242005       5.28768900
H       -1.58573786       7.58508472       5.46044349
C       -6.34474390       6.08146043       5.04094546
C       -6.56879157       7.22109317       4.71617500
Br      -6.93105770       9.06378293       4.19104863
C        0.88096100      -0.88096100       0.88096100
C        0.31083749      -1.93764173       1.59083748
C        1.12424982      -2.74748122       2.38934761
C        2.49821257      -2.51276603       2.48173544
O        3.15918255      -3.29170861       3.20326821
C        4.41760247      -3.19278417       3.32077633
N        5.01459783      -4.10204127       4.11834813
C        4.46371099      -5.32648310       4.32198314
C        3.74150546      -6.03445081       3.33684114
C        3.22840012      -7.31734601       3.56236228
C        3.43843993      -7.94945684       4.78051332
C        4.16564755      -7.29781889       5.77039231
C        4.67348458      -6.01050937       5.54266636
C        5.12928398      -2.14714624       2.69546303
C        4.42995318      -1.25293942       1.89549505
C        3.06801520      -1.44352341       1.76935987
C        2.25166779      -0.62431607       0.96550301
C        6.60043431      -1.93530137       2.81091265
O        7.13070438      -0.98043545       2.25129668
N        7.35022744      -2.81048920       3.53644097
H       -0.75659874      -2.14073372       1.52943750
H        0.70937599      -3.57827662       2.95249776
H        3.57273160      -5.59525866       2.35649836
H        2.67490991      -7.82212254       2.77596815
H        3.04920044      -8.94748789       4.95547970
H        4.34237217      -7.79857771       6.71792468
H        4.94306263      -0.44255210       1.38348582
H        2.68583093       0.20350399       0.40615225
H        6.93361253      -3.60152394       4.03013332
H        8.34483379      -2.65914413       3.62728814
C        5.42766184      -5.42102905       6.61845891
C        6.05928529      -4.92733928       7.51943517
Br       7.08056700      -4.12908468       8.97623759
