146
Properties=species:S:1:pos:R:3 pbc="F F F"
C        1.79086502       1.79086502      -1.79086502
C        1.39850418       3.09978076      -2.07074383
C        2.21411705       3.90570648      -2.87096719
C        3.41569150       3.41716601      -3.38956860
O        4.09646544       4.20543580      -4.08197019
C        5.22219440       3.87579100      -4.56288964
N        5.86297894       4.82092715      -5.28079321
C        5.64372958       6.14214147      -5.05601825
C        5.37527953       6.68610203      -3.78112792
C        5.20296207       8.06003827      -3.57482015
C        5.31425989       8.94544040      -4.63842187
C        5.60203160       8.45447206      -5.90706717
C        5.76866157       7.07691848      -6.11079233
Br       6.18272112       6.52640819      -7.89410350
C        5.73205942       2.57037987      -4.39916603
C        5.00014245       1.66060032      -3.64735695
C        3.80479674       2.09586150      -3.10995232
C        2.98497805       1.28030684      -2.30591404
C        7.02605466       2.08883766      -4.96146807
O        7.37718930       0.92555638      -4.78940290
N        7.81589167       2.94930915      -5.66166886
H        0.46853688       3.50163493      -1.67311273
H        1.93580711       4.92906086      -3.10499447
H        5.30527183       6.03858961      -2.91033925
H        4.99344767       8.43280214      -2.57646285
H        5.18960799      10.01203583      -4.48023628
H        5.70362325       9.14881520      -6.73614817
H        5.36515338       0.64951649      -3.48414276
H        3.28136334       0.25666090      -2.08016701
H        7.53978674       3.91650362      -5.83869150
H        8.68572935       2.61970058      -6.05554820
C       -1.79086502      -1.79086502      -1.79086502
C       -3.08808927      -1.38153418      -2.09940532
C       -3.88786355      -2.18821836      -2.91470881
C       -3.40279342      -3.39482994      -3.42480275
O       -4.17373412      -4.05045102      -4.15968629
C       -3.81658659      -5.13626027      -4.70802817
N       -4.73642907      -5.74033149      -5.48793873
C       -5.71672339      -5.02624287      -6.09892304
C       -5.54118465      -3.71345249      -6.58787235
C       -6.55762210      -3.02223196      -7.25796643
C       -7.78535749      -3.63042036      -7.48234430
C       -7.99275180      -4.93185293      -7.03896609
C       -6.97391269      -5.61915051      -6.36330919
Br      -7.37140548      -7.40921953      -5.82260781
C       -2.54715079      -5.69834283      -4.45611169
C       -1.66569275      -5.00753403      -3.63487294
C       -2.09707612      -3.80655975      -3.10697468
C       -1.28907286      -2.99770177      -2.28442431
C       -2.06161689      -6.98654419      -5.02819931
O       -0.94918831      -7.41149062      -4.73146965
N       -2.85838542      -7.68391750      -5.88456676
H       -3.48406209      -0.44303022      -1.71619224
H       -4.90119688      -1.89536303      -3.17330254
H       -4.58969906      -3.20223320      -6.46226844
H       -6.37839899      -2.01151835      -7.61279533
H       -8.57258133      -3.10026561      -8.00903316
H       -8.94830642      -5.41258835      -7.22769187
H       -0.67241395      -5.39838864      -3.42801003
H       -0.27420944      -3.30683473      -2.03714708
H       -3.79651953      -7.36563199      -6.13283034
H       -2.53593808      -8.56414958      -6.26089047
C       -1.79086502       1.79086502       1.79086502
C       -2.22761117       3.02693009       1.31448751
C       -3.04233099       3.82612352       2.12233621
C       -3.42525190       3.40059435       3.39657986
O       -4.16862665       4.16519173       4.05005306
C       -4.60817628       3.85475946       5.19793930
N       -5.41156843       4.76019391       5.79293696
C       -6.14641467       5.63575111       5.05972352
C       -6.71338879       5.32433248       3.80478821
C       -7.50817037       6.23335340       3.09629672
C       -7.78270134       7.48520741       3.63021340
C       -7.26432770       7.82414749       4.87509563
C       -6.46411035       6.91283427       5.57942776
Br      -5.82856421       7.48566409       7.28900452
C       -4.21890999       2.65409247       5.82860286
C       -3.38362996       1.78307762       5.14139215
C       -2.97843951       2.15693728       3.87523376
C       -2.15603205       1.34991345       3.06525344
C       -4.65757670       2.22996768       7.18881602
O       -4.24577084       1.17802423       7.66835352
N       -5.52075495       3.01475090       7.89136383
H       -1.94468532       3.37551407       0.32308517
H       -3.39904166       4.79250258       1.77831820
H       -6.55151262       4.34759442       3.35509365
H       -7.91977631       5.95131708       2.13161929
H       -8.40554355       8.18908619       3.08725037
H       -7.49147868       8.79803260       5.29907534
H       -3.07286997       0.84051544       5.58542722
H       -1.80928590       0.38246064       3.42644472
H       -5.86319472       3.90512410       7.52666305
H       -5.80671551       2.73526083       8.81900180
C        1.79086502      -1.79086502       1.79086502
C        2.00245066      -1.44191867       3.12465944
C        2.80308170      -2.25774102       3.92996801
C        3.38955287      -3.41678398       3.41608927
O        4.07768952      -4.10151957       4.20466235
C        4.61714450      -5.19286368       3.85086686
N        5.32290088      -5.84311898       4.79867944
C        5.03728757      -5.68744174       6.11716000
C        3.73194513      -5.49215704       6.61840731
C        3.46461661      -5.38477417       7.98842970
C        4.49609219      -5.49029278       8.91173719
C        5.79390123      -5.70729375       8.46237584
C        6.05856032      -5.80895163       7.08886043
Br       7.87774346      -6.12925723       6.59623213
C        4.52621916      -5.65467909       2.52070707
C        3.78146792      -4.91623298       1.61039883
C        3.17858478      -3.76196015       2.07006562
C        2.37435240      -2.94169351       1.25515302
C        5.15984437      -6.90455412       2.01196190
O        5.04844899      -7.21407222       0.82962738
N        5.85740099      -7.70083666       2.86863203
H        1.55134728      -0.54569757       3.54623970
H        2.98486042      -2.01272697       4.97227506
H        2.88527050      -5.43002895       5.93890125
H        2.44454323      -5.23036563       8.32780380
H        4.29090764      -5.41595726       9.97501520
H        6.59838521      -5.80452782       9.18567359
H        3.67346809      -5.24551452       0.57983002
H        2.20159535      -3.20441445       0.21218146
H        5.98457679      -7.45796602       3.85243905
H        6.29943215      -8.54014538       2.52140061
C       -0.00445707       0.01189536      -1.78238275
H       -0.66409135       0.67374010      -2.43557963
H        0.65740317      -0.63156657      -2.45157240
C       -0.90989263      -0.90692880      -0.91072765
C        0.90977584       0.90977584      -0.90977584
C       -0.00465871       1.77757030       0.00794375
H       -0.66225468       2.44313916      -0.64384735
H        0.64322798       2.43503045       0.67728295
C       -1.78241447       0.00034974      -0.00472694
H       -2.45427497      -0.65498947       0.64260836
H       -2.43311707       0.67328779      -0.65473579
C       -0.91132561       0.90220522       0.91563759
C       -0.01476271      -0.02253852       1.78660255
H       -0.67934791      -0.69751639       2.42135241
H        0.63392994       0.61504881       2.47327442
C        0.01484550      -1.77751727      -0.01636693
H        0.67870853      -2.42144646      -0.68295456
H       -0.62264859      -2.45592969       0.64226336
C        1.78714474       0.01002794       0.00389507
H        2.44202412       0.67113390       0.66197326
H        2.45385902      -0.65136977      -0.64189061
C        0.91606151      -0.90478549       0.90901405
