186
Properties=species:S:1:pos:R:3 pbc="F F F"
C        1.79230954       1.79230954      -1.79230954
C        1.33736051       3.05049522      -2.17747069
C        2.14510341       3.86067356      -2.98263140
C        3.40883678       3.41565714      -3.40174288
C        3.85356939       2.14699262      -3.00291554
C        3.04212454       1.33555682      -2.20038306
C        4.30983732       4.26422862      -4.24165093
O        5.50561958       4.07144837      -4.39177946
O        3.54994307       5.28086462      -4.79116321
C        4.17187698       6.24063576      -5.60982217
C        4.08774966       7.55510322      -5.13620441
C        4.52165098       8.61153313      -5.93651384
C        5.01818322       8.35078719      -7.21360770
Br       5.56847216       9.78662002      -8.31335024
C        5.09527796       7.04436037      -7.69452584
C        4.68393097       5.96966408      -6.88768210
C        4.74647901       4.60466173      -7.49331304
S        3.29076424       3.77949853      -7.76004556
N        6.02400956       4.13929477      -7.90668330
C        6.18785315       2.82062970      -8.54599121
C        7.35842615       2.78402008      -9.52793647
C        8.64670958       3.28605371      -8.89078984
C        8.42578802       4.67074513      -8.29543599
C        7.26732277       4.65829902      -7.30074417
H        0.36306314       3.41157028      -1.86116541
H        1.76989231       4.84150700      -3.26711993
H        4.83129598       1.78349267      -3.31783281
H        3.39751874       0.35230183      -1.90202408
H        3.66459844       7.75740229      -4.15632616
H        4.44682609       9.63174076      -5.56663788
H        5.46257552       6.85140807      -8.69918832
H        5.28806879       2.53091677      -9.09387141
H        6.33800173       2.08850157      -7.74350577
H        7.49940760       1.76197934      -9.89699564
H        7.12083026       3.40967804     -10.39689427
H        8.96931337       2.59134307      -8.10642009
H        9.44542161       3.32162398      -9.64035163
H        9.34247452       5.01001337      -7.79804535
H        8.21256219       5.38300143      -9.10191271
H        7.50481062       4.00699346      -6.45133788
H        7.14395158       5.66257088      -6.89283029
C       -1.79230954      -1.79230954      -1.79230954
C       -1.40518731      -3.10321563      -2.05692348
C       -2.21328315      -3.91319360      -2.86193161
C       -3.40981586      -3.41510603      -3.40131491
C       -3.78693688      -2.09347091      -3.12306976
C       -2.97488730      -1.28268481      -2.32049232
C       -4.31114394      -4.25948464      -4.24508829
O       -5.47672330      -3.99738400      -4.49474010
O       -3.59182083      -5.36273848      -4.66741159
C       -4.22502124      -6.33517007      -5.46214361
C       -4.26931164      -7.61428220      -4.89546346
C       -4.72370833      -8.69432606      -5.65166355
C       -5.11201266      -8.49425390      -6.97631155
Br      -5.68953796      -9.96573622      -8.01316825
C       -5.06081497      -7.22415229      -7.54919690
C       -4.62797254      -6.12392457      -6.78938003
C       -4.54955902      -4.80561895      -7.48927581
S       -3.02281435      -4.10288859      -7.70460538
N       -5.75872661      -4.28592638      -8.02533464
C       -5.78219509      -3.00930198      -8.76297700
C       -6.87757400      -2.96494874      -9.82785997
C       -8.23932429      -3.33052641      -9.25370242
C       -8.16088979      -4.67993001      -8.55114934
C       -7.07484789      -4.67371997      -7.47779810
H       -0.48354741      -3.50561424      -1.64663719
H       -1.89212059      -4.93537219      -3.05102646
H       -4.71190643      -1.68832536      -3.53238968
H       -3.27709722      -0.25843160      -2.11631584
H       -3.92957357      -7.77288170      -3.87587162
H       -4.74875580      -9.68757399      -5.20887493
H       -5.34397527      -7.08045380      -8.58874284
H       -4.82855263      -2.82209143      -9.26221290
H       -5.93273188      -2.21211518      -8.02516200
H       -6.91827569      -1.96532353     -10.27478337
H       -6.62774795      -3.66698118     -10.63267345
H       -8.56295534      -2.56017740      -8.54394378
H       -8.98573986      -3.36631146     -10.05534590
H       -9.13153343      -4.91898197      -8.10001784
H       -7.94586985      -5.46191942      -9.28968706
H       -7.32136862      -3.94760026      -6.69417308
H       -7.05301267      -5.65163593      -6.99470415
C       -1.79230954       1.79230954       1.79230954
C       -2.96150753       1.26751694       2.33630196
C       -3.76875182       2.07295700       3.14669955
C       -3.40754262       3.40246795       3.41622622
C       -2.22541046       3.91511702       2.86295007
C       -1.42059654       3.10886946       2.04859842
C       -4.23253407       4.28496128       4.29822152
O       -3.84074760       5.32455000       4.80354981
O       -5.48266194       3.70832726       4.43098170
C       -6.44796893       4.33460608       5.23975990
C       -6.89034808       3.56600485       6.32270436
C       -7.95988208       4.01019113       7.09962474
C       -8.59483812       5.20973089       6.77800909
Br     -10.07030553       5.79112774       7.80700915
C       -8.16487684       5.97473510       5.69455223
C       -7.07245372       5.54947490       4.91934852
C       -6.70578390       6.39558186       3.74308803
S       -6.89849078       5.73876039       2.19305716
N       -6.32392188       7.73865273       4.00741301
C       -5.97621112       8.66456696       2.91369598
C       -6.30217910      10.11971539       3.24848822
C       -5.70029140      10.54156667       4.58169506
C       -6.13786325       9.57728159       5.67682429
C       -5.76983774       8.13973356       5.31679466
H       -3.25554745       0.24060587       2.13964550
H       -4.67520935       1.63937066       3.56393924
H       -1.92780273       4.94456028       3.06025845
H       -0.50889279       3.52042192       1.62252996
H       -6.41825649       2.61354620       6.54652420
H       -8.30464723       3.40523330       7.93532420
H       -8.67910625       6.89707672       5.43698895
H       -6.50861933       8.41003889       1.99419874
H       -4.90335489       8.54728908       2.71936509
H       -5.93411004      10.77397806       2.45029448
H       -7.39091550      10.24557480       3.29091228
H       -4.60635844      10.55083377       4.50988431
H       -6.01718090      11.56107706       4.82913926
H       -5.66637947       9.85763505       6.62651872
H       -7.22271216       9.65649166       5.81827251
H       -4.68070661       8.03358629       5.24884907
H       -6.09289656       7.48170029       6.12475590
C        1.79230954      -1.79230954       1.79230954
C        2.99374631      -1.28838497       2.28319514
C        3.80114604      -2.09372988       3.09353245
C        3.40797395      -3.40220602       3.41605683
C        2.19369446      -3.89387409       2.91590900
C        1.38862216      -3.08792106       2.10152120
C        4.23300570      -4.28289126       4.29981991
O        3.82567412      -5.29351111       4.84966217
O        5.50384648      -3.74238121       4.37574321
C        6.47460982      -4.37380163       5.17392347
C        6.97452043      -3.58669423       6.21784262
C        8.05399542      -4.04048395       6.97521858
C        8.64126615      -5.26887279       6.67243917
Br      10.13005492      -5.86486386       7.67352365
C        8.15385559      -6.05279618       5.62751238
C        7.05098656      -5.61713552       4.87315506
C        6.62137025      -6.48694181       3.73614173
S        6.78492454      -5.88451148       2.16087231
N        6.20698377      -7.80846961       4.05453425
C        5.79647264      -8.75606957       3.00193185
C        6.08801550     -10.20984522       3.37252199
C        5.51602575     -10.57122339       4.73630398
C        6.01753441      -9.58809612       5.78633861
C        5.68263381      -8.15134571       5.39238643
H        3.31282510      -0.27784393       2.04512980
H        4.73327613      -1.67648675       3.46875637
H        1.87099420      -4.90681168       3.15481559
H        0.45164821      -3.48325680       1.71693965
H        6.53926021      -2.61331564       6.42575104
H        8.44351756      -3.42136393       7.78032323
H        8.63106815      -6.99846042       5.38364334
H        6.30702686      -8.54693297       2.05889713
H        4.72210526      -8.61085833       2.83704547
H        5.67488614     -10.87633027       2.60716618
H        7.17316682     -10.36880197       3.38543379
H        4.42059803     -10.54799972       4.69847877
H        5.80911834     -11.59218272       5.00609616
H        5.56800900      -9.82403674       6.75848749
H        7.10337585      -9.69728230       5.89681818
H        4.59567302      -8.01285374       5.35461521
H        6.05122246      -7.47936625       6.16876402
C       -0.00445707       0.01189536      -1.78238275
H       -0.66409135       0.67374010      -2.43557963
H        0.65740317      -0.63156657      -2.45157240
C       -0.90989263      -0.90692880      -0.91072765
C        0.90977584       0.90977584      -0.90977584
C       -0.00465871       1.77757030       0.00794375
H       -0.66225468       2.44313916      -0.64384735
H        0.64322798       2.43503045       0.67728295
C       -1.78241447       0.00034974      -0.00472694
H       -2.45427497      -0.65498947       0.64260836
H       -2.43311707       0.67328779      -0.65473579
C       -0.91132561       0.90220522       0.91563759
C       -0.01476271      -0.02253852       1.78660255
H       -0.67934791      -0.69751639       2.42135241
H        0.63392994       0.61504881       2.47327442
C        0.01484550      -1.77751727      -0.01636693
H        0.67870853      -2.42144646      -0.68295456
H       -0.62264859      -2.45592969       0.64226336
C        1.78714474       0.01002794       0.00389507
H        2.44202412       0.67113390       0.66197326
H        2.45385902      -0.65136977      -0.64189061
C        0.91606151      -0.90478549       0.90901405
