194
Properties=species:S:1:pos:R:3 pbc="F F F"
C        1.79230954       1.79230954      -1.79230954
C        1.33736051       3.05049522      -2.17747069
C        2.14510341       3.86067356      -2.98263140
C        3.40883678       3.41565714      -3.40174288
C        3.85356939       2.14699262      -3.00291554
C        3.04212454       1.33555682      -2.20038306
C        4.30983732       4.26422862      -4.24165093
O        5.50561958       4.07144837      -4.39177946
O        3.54994307       5.28086462      -4.79116321
C        4.17187698       6.24063576      -5.60982217
C        4.08774966       7.55510322      -5.13620441
C        4.52165098       8.61153313      -5.93651384
C        5.01818322       8.35078719      -7.21360770
C        5.09527796       7.04436037      -7.69452584
C        4.68393097       5.96966408      -6.88768210
C        4.74647901       4.60466173      -7.49331304
S        3.29076424       3.77949853      -7.76004556
N        6.02400956       4.13929477      -7.90668330
C        6.18785315       2.82062970      -8.54599121
C        7.35842615       2.78402008      -9.52793647
C        8.64670958       3.28605371      -8.89078984
C        8.42578802       4.67074513      -8.29543599
C        7.26732277       4.65829902      -7.30074417
H        0.36306314       3.41157028      -1.86116541
H        1.76989231       4.84150700      -3.26711993
H        4.83129598       1.78349267      -3.31783281
H        3.39751874       0.35230183      -1.90202408
H        3.66459844       7.75740229      -4.15632616
H        4.44682609       9.63174076      -5.56663788
H        5.46257552       6.85140807      -8.69918832
H        5.28806879       2.53091677      -9.09387141
H        6.33800173       2.08850157      -7.74350577
H        7.49940760       1.76197934      -9.89699564
H        7.12083026       3.40967804     -10.39689427
H        8.96931337       2.59134307      -8.10642009
H        9.44542161       3.32162398      -9.64035163
H        9.34247452       5.01001337      -7.79804535
H        8.21256219       5.38300143      -9.10191271
H        7.50481062       4.00699346      -6.45133788
H        7.14395158       5.66257088      -6.89283029
C        5.43734730       9.44448451      -8.05129955
C        5.78839721      10.36045602      -8.75286648
Br       6.35601524      11.84150447      -9.88724087
C       -1.79230954      -1.79230954      -1.79230954
C       -1.38832844      -3.09214715      -2.08485083
C       -2.19634254      -3.90217488      -2.88989094
C       -3.40958904      -3.41524301      -3.40140475
C       -3.80352069      -2.10473567      -3.09522119
C       -2.99160731      -1.29379501      -2.29266210
C       -4.31089175      -4.26057401      -4.24425111
O       -5.48455601      -4.01377024      -4.47052115
O       -3.58079021      -5.34474964      -4.69643105
C       -4.21114106      -6.31445992      -5.49673393
C       -4.22521572      -7.60318635      -4.95065522
C       -4.67442130      -8.67814797      -5.71712867
C       -5.08780174      -8.46298992      -7.03178645
C       -5.06677766      -7.18305624      -7.58433026
C       -4.63938928      -6.08833181      -6.81355605
C       -4.59404357      -4.75768884      -7.49272137
S       -3.08271524      -4.02637394      -7.72121915
N       -5.82021827      -4.24942103      -8.00034832
C       -5.87667322      -2.96151968      -8.71628117
C       -6.99010322      -2.91797013      -9.76230935
C       -8.33603205      -3.31533453      -9.17218655
C       -8.22402173      -4.67451446      -8.49343295
C       -7.12060928      -4.66780677      -7.43794991
H       -0.45359516      -3.48586361      -1.69634005
H       -1.86175419      -4.91568398      -3.10108107
H       -4.74161146      -1.70834384      -3.48266617
H       -3.30703230      -0.27814372      -2.06666864
H       -3.86611245      -7.77272014      -3.93949430
H       -4.67596278      -9.67875171      -5.29049023
H       -5.36940606      -7.02715819      -8.61660767
H       -4.93459828      -2.75044846      -9.22781022
H       -6.02793720      -2.17905144      -7.96302042
H       -7.05446544      -1.91201168     -10.19190546
H       -6.74223479      -3.60257559     -10.58259220
H       -8.66037103      -2.56210484      -8.44460066
H       -9.09493132      -3.35041195      -9.96205394
H       -9.18304538      -4.93691132      -8.03057654
H       -8.00855136      -5.44071042      -9.24821455
H       -7.36591612      -3.95872086      -6.63850498
H       -7.07486324      -5.65296295      -6.97152655
C       -5.52241654      -9.57796216      -7.83275267
C       -5.88640643     -10.51175140      -8.50356188
Br      -6.47494730     -12.02160964      -9.58820364
C       -1.79230954       1.79230954       1.79230954
C       -2.95965446       1.26643913       2.33923283
C       -3.76689018       2.07188465       3.14963353
C       -3.40751882       3.40248301       3.41623497
C       -2.22723478       3.91621621       2.86002656
C       -1.42243486       3.10995214       2.04567742
C       -4.23251130       4.28507490       4.29813067
O       -3.84165288       5.32621318       4.80098135
O       -5.48140711       3.70651101       4.43405277
C       -6.44639754       4.33251974       5.24341764
C       -6.88557164       3.56503162       6.32845403
C       -7.95452845       4.00871295       7.10645655
C       -8.59211634       5.20659419       6.78386757
C       -8.16535473       5.97046293       5.69834650
C       -7.07353869       5.54575017       4.92198828
C       -6.71036928       6.39045125       3.74363326
S       -6.90461802       5.73061381       2.19507649
N       -6.33037764       7.73463618       4.00497380
C       -5.98616275       8.65925448       2.90905684
C       -6.31407126      10.11441481       3.24189663
C       -5.71061084      10.53961471       4.57332758
C       -6.14461766       9.57647275       5.67087873
C       -5.77472585       8.13894177       5.31269833
H       -3.25225488       0.23868210       2.14486184
H       -4.67187257       1.63745498       3.56919170
H       -1.93106983       4.94651272       3.05503892
H       -0.51218337       3.52234178       1.61731952
H       -6.41144476       2.61377976       6.55310237
H       -8.29679978       3.40460829       7.94379666
H       -8.68162549       6.89146654       5.44007989
H       -6.51971837       8.40221400       1.99092460
H       -4.91344261       8.54349539       2.71307107
H       -5.94851664      10.76792942       2.44193652
H       -7.40294905      10.23846484       3.28598870
H       -4.61682138      10.55064887       4.49960628
H       -6.02883739      11.55900271       4.81955712
H       -5.67197880       9.85928550       6.61926893
H       -7.22935595       9.65405181       5.81406858
H       -4.68553161       8.03456030       5.24305005
H       -6.09524695       7.48175131       6.12235448
C       -9.71541241       5.64886667       7.56885228
C      -10.65617287       6.01926987       8.22627697
Br     -12.17730297       6.61818052       9.28927710
C        1.79230954      -1.79230954       1.79230954
C        2.99198386      -1.28713305       2.28620951
C        3.79937477      -2.09248315       3.09655044
C        3.40794947      -3.40222034       3.41606700
C        2.19542714      -3.89514667       2.91290375
C        1.39036973      -3.08917716       2.09851753
C        4.23297595      -4.28300933       4.29973159
O        3.82646267      -5.29531838       4.84706636
O        5.50272228      -3.74039064       4.37885799
C        6.47319001      -4.37150675       5.17763816
C        6.96986249      -3.58536595       6.22382885
C        8.04879930      -4.03858769       6.98231096
C        8.63877651      -5.26539967       6.67840193
C        8.15460020      -6.04833262       5.63123135
C        7.05229616      -5.61328652       4.87569446
C        6.62622852      -6.48183708       3.73638819
S        6.79149873      -5.87633246       2.16247714
N        6.21361929      -7.80465604       4.05171230
C        5.80664533      -8.75111564       2.99671309
C        6.10010504     -10.20502752       3.36525015
C        5.52634768     -10.56982794       4.72737750
C        6.02426055      -9.58767588       5.78003270
C        5.68751464      -8.15082443       5.38802689
H        3.30969408      -0.27561034       2.05049440
H        4.73010092      -1.67425885       3.47415948
H        1.87409821      -4.90907380       3.14944946
H        0.45477750      -3.48548614       1.71158102
H        6.53251410      -2.61312706       6.43268573
H        8.43580271      -3.42020617       7.78919585
H        8.63391528      -6.99271950       5.38653714
H        6.31849358      -8.53940928       2.05495410
H        4.73231561      -8.60751073       2.83018272
H        5.68950809     -10.87088596       2.59798854
H        7.18551142     -10.36208994       3.37980122
H        4.43094910     -10.54847226       4.68765517
H        5.82076932     -11.59074377       4.99588414
H        5.57343693      -9.82612989       6.75096642
H        7.11009666      -9.69513930       5.89224038
H        4.60037890      -8.01418593       5.34857712
H        6.05354182      -7.47956977       6.16624115
C        9.77226409      -5.71872061       7.44214667
C       10.72155995      -6.09837689       8.08178288
Br      12.25649105      -6.71224898       9.11602055
C       -0.00445707       0.01189536      -1.78238275
H       -0.66409135       0.67374010      -2.43557963
H        0.65740317      -0.63156657      -2.45157240
C       -0.90989263      -0.90692880      -0.91072765
C        0.90977584       0.90977584      -0.90977584
C       -0.00465871       1.77757030       0.00794375
H       -0.66225468       2.44313916      -0.64384735
H        0.64322798       2.43503045       0.67728295
C       -1.78241447       0.00034974      -0.00472694
H       -2.45427497      -0.65498947       0.64260836
H       -2.43311707       0.67328779      -0.65473579
C       -0.91132561       0.90220522       0.91563759
C       -0.01476271      -0.02253852       1.78660255
H       -0.67934791      -0.69751639       2.42135241
H        0.63392994       0.61504881       2.47327442
C        0.01484550      -1.77751727      -0.01636693
H        0.67870853      -2.42144646      -0.68295456
H       -0.62264859      -2.45592969       0.64226336
C        1.78714474       0.01002794       0.00389507
H        2.44202412       0.67113390       0.66197326
H        2.45385902      -0.65136977      -0.64189061
C        0.91606151      -0.90478549       0.90901405
