150
Properties=species:S:1:pos:R:3 pbc="F F F"
C        1.79161813       1.79161813      -1.79161813
C        1.36551020       2.13460814      -3.07192585
C        2.17109991       2.94492320      -3.87470877
C        3.40920278       3.41976127      -3.40540371
C        3.82182050       3.05913921      -2.11235587
C        3.01556925       2.24905332      -1.30800867
C        4.28350748       4.31130625      -4.26930927
H        5.14338851       4.65338546      -3.68029878
N        3.56507744       5.51849626      -4.63065520
C        3.27682810       5.90478802      -5.89811133
S        2.35925977       7.25698764      -6.19680494
N        3.77459009       5.14562837      -6.90970443
C        4.53929808       4.02847851      -6.72333634
C        4.80620699       3.60392474      -5.48242413
C        5.04152399       3.33069184      -7.90858407
C        6.26605051       3.70226089      -8.47831017
C        6.74154177       3.04555472      -9.61594750
C        5.99134470       2.01681073     -10.18357395
Br       6.63120132       1.13134897     -11.72616623
C        4.77195989       1.63711658      -9.62441882
C        4.29779636       2.29385954      -8.48599422
H        0.41076691       1.78273265      -3.45340025
H        1.82634471       3.21372137      -4.87219755
H        4.77318160       3.41003961      -1.71753859
H        3.34923638       1.98389050      -0.30799201
H        3.17257430       6.07950841      -3.88616384
H        3.56950966       5.44995599      -7.85546699
H        5.41671285       2.72062548      -5.31938624
H        6.85280267       4.50717352      -8.04049613
H        7.69201079       3.34433857     -10.05006704
H        4.18413233       0.83627625     -10.06554555
H        3.34444958       1.99622074      -8.05437810
C       -1.79161813      -1.79161813      -1.79161813
C       -3.08485560      -2.10506506      -1.38212353
C       -3.89109489      -2.90748270      -2.19215429
C       -3.41249854      -3.40355037      -3.41831886
C       -2.10392587      -3.07840083      -3.81098888
C       -1.29686876      -2.27450680      -3.00125568
C       -4.28905485      -4.26618975      -4.30887841
H       -3.76757022      -4.45397971      -5.25552281
N       -5.49394607      -3.54597061      -4.67431221
C       -6.75773017      -3.94065256      -4.38134471
S       -8.06508125      -2.98817968      -4.75979141
N       -6.90908419      -5.14704555      -3.77379315
C       -5.87187680      -5.97397085      -3.44526528
C       -4.61264681      -5.59127123      -3.68863783
C       -6.18693593      -7.26447039      -2.82939358
C       -6.42785909      -8.38731835      -3.63144413
C       -6.73998091      -9.61682523      -3.04623784
C       -6.81107429      -9.72260526      -1.65804983
Br      -7.23880260     -11.38448628      -0.86542764
C       -6.57164079      -8.61238196      -0.84947252
C       -6.25851965      -7.38339641      -1.43573406
H       -3.47681560      -1.72923112      -0.44085309
H       -4.90374148      -3.14164691      -1.86687523
H       -1.70255117      -3.44428422      -4.75392440
H       -0.28806681      -2.02941740      -3.32363468
H       -5.39243543      -2.63784185      -5.10796928
H       -7.85817487      -5.44376877      -3.57298900
H       -3.77894121      -6.24037464      -3.43740872
H       -6.37701215      -8.30805331      -4.71540687
H       -6.92696614     -10.48028408      -3.67916619
H       -6.62767395      -8.69143853       0.23315835
H       -6.07500599      -6.51887051      -0.80117193
C       -1.79161813       1.79161813       1.79161813
C       -3.12469502       1.99942023       1.44792894
C       -3.93045966       2.80209651       2.25817571
C       -3.41157180       3.40395942       3.41883655
C       -2.06348319       3.18434479       3.74548760
C       -1.25679103       2.38026640       2.93557381
C       -4.28638778       4.26755326       4.31018196
H       -3.72184066       4.54696045       5.20827164
N       -5.41821391       3.50087097       4.79514402
C       -6.72013756       3.79886133       4.56072856
S       -7.93830747       2.79547954       5.07926533
N       -6.98514680       4.95235460       3.89242149
C       -6.02498206       5.81757340       3.44855747
C       -4.73136009       5.52805534       3.63314044
C       -6.45896779       7.04442448       2.77740763
C       -6.72270101       8.19990837       3.52401219
C       -7.14798797       9.36815327       2.88690274
C       -7.30943657       9.37998531       1.50230750
Br      -7.89020124      10.95860363       0.63991166
C       -7.04839296       8.23656734       0.74853499
C       -6.62208035       7.06896992       1.38659985
H       -3.54780902       1.54086937       0.55822141
H       -4.97385667       2.95328361       1.98512334
H       -1.63025093       3.63365948       4.63684938
H       -0.21669646       2.21777808       3.20664435
H       -5.23252969       2.63029027       5.27542659
H       -7.96174036       5.17769713       3.73549516
H       -3.95780433       6.20882523       3.29009501
H       -6.60149652       8.19370758       4.60526822
H       -7.35153136      10.25764393       3.47724112
H       -7.17466961       8.24233289      -0.33104837
H       -6.42202507       6.17810168       0.79492167
C        1.79161813      -1.79161813       1.79161813
C        1.65444628      -1.74140041       3.17619750
C        2.45833378      -2.55202188       3.98037623
C        3.40604620      -3.41993950       3.40838207
C        3.53077243      -3.45260686       2.00993629
C        2.72580477      -2.64234885       1.20447762
C        4.27409892      -4.31263490       4.27738919
H        4.86095129      -4.98089754       3.63522391
N        3.44377208      -5.18925581       5.08120101
C        3.42439450      -5.21858090       6.43675204
S        2.36015060      -6.19270272       7.26019902
N        4.31403827      -4.42559260       7.09029202
C        5.21535244      -3.61016495       6.46559554
C        5.22938386      -3.53373156       5.12944045
C        6.14207070      -2.84066241       7.29806679
C        7.36998003      -3.39481098       7.68183057
C        8.25061177      -2.66681166       8.48562055
C        7.90225991      -1.38397600       8.90549348
Br       9.09072387      -0.40027932       9.99771334
C        6.68363011      -0.82134409       8.52852108
C        5.80403713      -1.54988674       7.72372624
H        0.92582856      -1.08158624       3.63948501
H        2.33909222      -2.51103993       5.06213147
H        4.25290883      -4.11334933       1.53450163
H        2.83318225      -2.68437630       0.12356034
H        2.76387544      -5.76818648       4.60618463
H        4.30572484      -4.46526029       8.10394751
H        5.94346378      -2.89374411       4.61951668
H        7.64398271      -4.39718101       7.35930860
H        9.19946287      -3.10838163       8.77857190
H        6.40864576       0.17814489       8.85545326
H        4.85289226      -1.10813107       7.43402510
C       -0.00445707       0.01189536      -1.78238275
H       -0.66409135       0.67374010      -2.43557963
H        0.65740317      -0.63156657      -2.45157240
C       -0.90989263      -0.90692880      -0.91072765
C        0.90977584       0.90977584      -0.90977584
C       -0.00465871       1.77757030       0.00794375
H       -0.66225468       2.44313916      -0.64384735
H        0.64322798       2.43503045       0.67728295
C       -1.78241447       0.00034974      -0.00472694
H       -2.45427497      -0.65498947       0.64260836
H       -2.43311707       0.67328779      -0.65473579
C       -0.91132561       0.90220522       0.91563759
C       -0.01476271      -0.02253852       1.78660255
H       -0.67934791      -0.69751639       2.42135241
H        0.63392994       0.61504881       2.47327442
C        0.01484550      -1.77751727      -0.01636693
H        0.67870853      -2.42144646      -0.68295456
H       -0.62264859      -2.45592969       0.64226336
C        1.78714474       0.01002794       0.00389507
H        2.44202412       0.67113390       0.66197326
H        2.45385902      -0.65136977      -0.64189061
C        0.91606151      -0.90478549       0.90901405
