158
Properties=species:S:1:pos:R:3 pbc="F F F"
C        1.79161813       1.79161813      -1.79161813
C        1.36551020       2.13460814      -3.07192585
C        2.17109991       2.94492320      -3.87470877
C        3.40920278       3.41976127      -3.40540371
C        3.82182050       3.05913921      -2.11235587
C        3.01556925       2.24905332      -1.30800867
C        4.28350748       4.31130625      -4.26930927
H        5.14338851       4.65338546      -3.68029878
N        3.56507744       5.51849626      -4.63065520
C        3.27682810       5.90478802      -5.89811133
S        2.35925977       7.25698764      -6.19680494
N        3.77459009       5.14562837      -6.90970443
C        4.53929808       4.02847851      -6.72333634
C        4.80620699       3.60392474      -5.48242413
C        5.04152399       3.33069184      -7.90858407
C        6.26605051       3.70226089      -8.47831017
C        6.74154177       3.04555472      -9.61594750
C        5.99134470       2.01681073     -10.18357395
C        4.77195989       1.63711658      -9.62441882
C        4.29779636       2.29385954      -8.48599422
H        0.41076691       1.78273265      -3.45340025
H        1.82634471       3.21372137      -4.87219755
H        4.77318160       3.41003961      -1.71753859
H        3.34923638       1.98389050      -0.30799201
H        3.17257430       6.07950841      -3.88616384
H        3.56950966       5.44995599      -7.85546699
H        5.41671285       2.72062548      -5.31938624
H        6.85280267       4.50717352      -8.04049613
H        7.69201079       3.34433857     -10.05006704
H        4.18413233       0.83627625     -10.06554555
H        3.34444958       1.99622074      -8.05437810
C        6.47878970       1.34226289     -11.35872611
C        6.88702488       0.77732907     -12.34291604
Br       7.54710664      -0.13612113     -13.93426791
C       -1.79161813      -1.79161813      -1.79161813
C       -3.12060730      -2.01163820      -1.43979869
C       -3.92642707      -2.81428213      -2.25002267
C       -3.41168006      -3.40390714      -3.41878057
C       -2.06764117      -3.17208908      -3.75358533
C       -1.26090653      -2.36803391      -2.94369081
C       -4.28669815      -4.26738172      -4.31004313
H       -3.72671460      -4.53613852      -5.21421962
N       -5.42756578      -3.50549045      -4.78117267
C       -6.72554754      -3.81467409      -4.53950581
S       -7.95471595      -2.81648307      -5.04185332
N       -6.97729734      -4.97488786      -3.87773769
C       -6.00766768      -5.83626624      -3.44717900
C       -4.71756175      -5.53597642      -3.63901770
C       -6.42783232      -7.07108875      -2.78187883
C       -6.68862631      -8.22302407      -3.53497120
C       -7.10076623      -9.39893314      -2.90334461
C       -7.25200734      -9.42198359      -1.51773845
C       -6.99376298      -8.28218517      -0.75754714
C       -6.58059974      -7.10690913      -1.39014125
H       -3.54052542      -1.56265340      -0.54372098
H       -4.96667817      -2.97506217      -1.97052329
H       -1.63768438      -3.61175229      -4.65132311
H       -0.22402517      -2.19599174      -3.22110197
H       -5.25171205      -2.63011705      -5.25641745
H       -7.95105900      -5.20848942      -3.71538423
H       -3.93660502      -6.21354762      -3.30657193
H       -6.57537074      -8.20809805      -4.61700353
H       -7.30216093     -10.28558279      -3.49867269
H       -7.11210582      -8.29670089       0.32285257
H       -6.38269318      -6.21891716      -0.79343809
C       -7.68089374     -10.63251211      -0.86637284
C       -8.04008610     -11.64632975      -0.32085414
Br      -8.62086976     -13.28558712       0.56120346
C       -1.79161813       1.79161813       1.79161813
C       -3.15346034       1.89667997       1.52190388
C       -3.95875881       2.69965432       2.33231875
C       -3.41064978       3.40445258       3.41926541
C       -2.03412173       3.28743652       3.67175733
C       -1.22778979       2.48314236       2.86169908
C       -4.28375728       4.26914507       4.31122065
H       -3.68533073       4.63870157       5.15304044
N       -5.33317237       3.46846044       4.91259609
C       -6.66318281       3.67221064       4.74433399
S       -7.78148053       2.63269959       5.39887221
N       -7.04093176       4.76269008       4.02630105
C       -6.16634353       5.65385547       3.47091393
C       -4.84813416       5.45486479       3.58955691
C       -6.71727378       6.80708913       2.75643700
C       -7.00897309       7.98997625       3.44767223
C       -7.54545309       9.08752477       2.77006612
C       -7.79012262       9.00121081       1.40039596
C       -7.50230317       7.82972408       0.70146803
C       -6.96478548       6.73294310       1.37992154
H       -3.59905571       1.35769120       0.69015290
H       -5.02418155       2.77021243       2.11786965
H       -1.57775798       3.81793746       4.50506435
H       -0.16505409       2.40100179       3.07506301
H       -5.06379142       2.64303905       5.43141607
H       -8.03757468       4.91854224       3.91881573
H       -4.14160937       6.15753048       3.15758472
H       -6.82295515       8.06011534       4.51740183
H       -7.76958646       9.99907542       3.31775453
H       -7.69324560       7.75895386      -0.36624533
H       -6.74411924       5.81972531       0.83120388
C       -8.34706394      10.13068201       0.70203274
C       -8.81350230      11.07661413       0.11715355
Br      -9.56769368      12.60610638      -0.82854663
C        1.79161813      -1.79161813       1.79161813
C        1.70267632      -1.69191208       3.17745579
C        2.50635501      -2.50251675       3.98186012
C        3.40567361      -3.41984853       3.40884562
C        3.48228783      -3.50205591       2.00897184
C        2.67747541      -2.69181961       1.20333623
C        4.27295849      -4.31248609       4.27867842
H        4.81593675      -5.02055188       3.64058411
N        3.44204979      -5.13420477       5.13797433
C        3.46721815      -5.11884885       6.49366044
S        2.40014140      -6.02947727       7.38343367
N        4.40355647      -4.33535836       7.09100806
C        5.30939793      -3.57133395       6.41038104
C        5.28106900      -3.53882402       5.07266285
C        6.28801089      -2.80673959       7.18604941
C        7.50946960      -3.38902222       7.54812976
C        8.43973694      -2.66527065       8.29803639
C        8.14748965      -1.35851838       8.68572136
C        6.93580356      -0.76785254       8.32983919
C        6.00652251      -1.49221431       7.57891330
H        1.01181196      -0.99333562       3.64175224
H        2.42486489      -2.42246711       5.06493162
H        4.16624029      -4.20173650       1.53278300
H        2.74710857      -2.77248839       0.12152193
H        2.72816710      -5.70511310       4.70496635
H        4.42797115      -4.34180231       8.10515918
H        5.99803627      -2.94004181       4.51864650
H        7.73981818      -4.40996046       7.25069369
H        9.38304911      -3.12868305       8.57468424
H        6.70452883       0.25038387       8.63180918
H        5.06103413      -1.02843397       7.30558034
C        9.10411665      -0.61331853       9.46234351
C        9.90529177       0.01078634      10.11276456
Br      11.20072416       1.01991114      11.16444039
C       -0.00445707       0.01189536      -1.78238275
H       -0.66409135       0.67374010      -2.43557963
H        0.65740317      -0.63156657      -2.45157240
C       -0.90989263      -0.90692880      -0.91072765
C        0.90977584       0.90977584      -0.90977584
C       -0.00465871       1.77757030       0.00794375
H       -0.66225468       2.44313916      -0.64384735
H        0.64322798       2.43503045       0.67728295
C       -1.78241447       0.00034974      -0.00472694
H       -2.45427497      -0.65498947       0.64260836
H       -2.43311707       0.67328779      -0.65473579
C       -0.91132561       0.90220522       0.91563759
C       -0.01476271      -0.02253852       1.78660255
H       -0.67934791      -0.69751639       2.42135241
H        0.63392994       0.61504881       2.47327442
C        0.01484550      -1.77751727      -0.01636693
H        0.67870853      -2.42144646      -0.68295456
H       -0.62264859      -2.45592969       0.64226336
C        1.78714474       0.01002794       0.00389507
H        2.44202412       0.67113390       0.66197326
H        2.45385902      -0.65136977      -0.64189061
C        0.91606151      -0.90478549       0.90901405
