150
Properties=species:S:1:pos:R:3 pbc="F F F"
C        1.79223870       1.79223870      -1.79223870
C        1.45096419       3.12575163      -1.99016558
C        2.25924828       3.92033883      -2.79492440
C        3.40351972       3.38090759      -3.39242158
C        3.76899755       2.04226571      -3.19791104
C        2.93535937       1.25194116      -2.38920801
N        4.91341185       1.45438753      -3.76551080
C        5.86909552       2.02297981      -4.55451816
N        5.92805801       3.20264767      -5.06332769
C        7.07361077       3.33732089      -5.79423189
O        7.40858079       4.35394870      -6.38340385
C        7.99309667       2.17821482      -5.86916510
S        7.23112653       0.97273719      -4.92573803
C        9.22666699       2.06638565      -6.62102715
H        9.42703810       2.83417431      -7.36321334
C       10.32386346       1.16340699      -6.29527555
C       10.91224079       1.19377298      -5.02528604
C       11.99179333       0.36031642      -4.72527268
C       12.48352102      -0.50931549      -5.69719333
O       13.54256610      -1.32204572      -5.40429435
C       11.90009394      -0.54619244      -6.96641878
Br      12.53689751      -1.71797689      -8.31492436
C       10.82536334       0.29477731      -7.26880239
H        0.56543872       3.55238929      -1.52722263
H        2.00653293       4.96474221      -2.96264901
H        3.99915026       4.04657245      -4.01127212
H        3.17607939       0.20606608      -2.21612917
H        5.07902366       0.48935595      -3.50968250
H       10.54628222       1.87951211      -4.26366185
H       12.43526565       0.40904771      -3.73536496
H       13.84262313      -1.14650859      -4.49792424
H       10.37769269       0.26815700      -8.25954078
C       -1.79223870      -1.79223870      -1.79223870
C       -1.70053995      -3.17610534      -1.69023610
C       -2.50663460      -3.97046030      -2.49741661
C       -3.40079045      -3.37945259      -3.39660584
C       -3.51422397      -1.98727220      -3.50767813
C       -2.68519706      -1.20048111      -2.69083036
N       -4.40369650      -1.34343388      -4.38617981
C       -5.30874897      -1.89185079      -5.24599372
N       -5.51978544      -3.12328886      -5.55095907
C       -6.52965726      -3.20946135      -6.46604493
O       -6.96038073      -4.25363669      -6.93191592
C       -7.16880190      -1.95226265      -6.91941204
S       -6.34722614      -0.72560020      -6.05677541
C       -8.21002519      -1.79012573      -7.91392887
H       -8.43471808      -2.64788471      -8.54182296
C       -9.13980969      -0.66886215      -7.97387416
C       -9.92658878      -0.34164260      -6.86306843
C      -10.84914948       0.70436816      -6.93260112
C      -10.98395852       1.42846158      -8.11590192
O      -11.88975017       2.44959369      -8.18465825
C      -10.20076127       1.10850855      -9.22806756
Br     -10.35102191       2.07196861     -10.85479168
C       -9.28398008       0.05557732      -9.16054028
H       -1.01053060      -3.64222029      -0.99229973
H       -2.44674044      -5.05443701      -2.43274669
H       -4.00674471      -4.04735958      -4.00289055
H       -2.73411851      -0.11600953      -2.74814660
H       -4.41045229      -0.33274998      -4.33485985
H       -9.84050498      -0.90993367      -5.93901753
H      -11.45289093       0.93270543      -6.05949282
H      -12.36687112       2.51458745      -7.34175512
H       -8.68053810      -0.19496328     -10.02988911
C       -1.79223870       1.79223870       1.79223870
C       -3.13977229       1.48369493       1.94341417
C       -3.93458058       2.29249512       2.74743581
C       -3.37926894       3.39969435       3.39788560
C       -2.02205490       3.72181614       3.26530326
C       -1.23626483       2.89876354       2.44148016
N       -1.41242459       4.81545088       3.90543472
C       -1.96181363       5.72630530       4.75847456
N       -3.18466061       5.88606787       5.12330489
C       -3.27701333       6.93282494       5.99532527
O       -4.31253526       7.31190260       6.52149549
C       -2.03394518       7.65630441       6.35022700
S       -0.81007608       6.85140004       5.46812562
C       -1.89242181       8.82055470       7.20110327
H       -2.80128733       9.35026463       7.47287379
C       -0.67699599       9.18835456       7.91719545
C       -0.06545321       8.27821903       8.78762757
C        1.07390577       8.64365343       9.50763477
C        1.60627867       9.92270009       9.35497744
O        2.71912021      10.28114618      10.06278875
C        1.00211123      10.83576798       8.48666353
Br       1.69784328      12.58389871       8.24778955
C       -0.14352391      10.47226772       7.77315142
H       -3.57744376       0.62392748       1.44367939
H       -4.99091712       2.06763731       2.87536972
H       -4.04577530       3.99728935       4.01393018
H       -0.17977952       3.11471436       2.30378076
H       -0.41612848       4.90807677       3.75385687
H       -0.48127199       7.28214116       8.92604303
H        1.52434574       7.92182847      10.18219559
H        2.98736557       9.54520898      10.63619537
H       -0.61498878      11.18735894       7.10304276
C        1.79223870      -1.79223870       1.79223870
C        3.16223964      -1.55944494       1.84519681
C        3.95680271      -2.36765728       2.65005151
C        3.37923094      -3.39853496       3.39908299
C        1.99994439      -3.64317408       3.36605583
C        1.21397159      -2.82247387       2.54006307
N        1.36840264      -4.65777431       4.10713324
C        1.91552127      -5.54961572       4.98145649
N        3.14721501      -5.76325386       5.28356449
C        3.23220542      -6.76109702       6.21186111
O        4.27445745      -7.17224916       6.69922674
C        1.97343881      -7.38428698       6.68275079
S        0.74630740      -6.55793899       5.82535536
C        1.81724120      -8.48594761       7.61089097
H        2.70876003      -9.05417491       7.86149082
C        0.62912003      -8.73540059       8.41802538
C        0.12675663      -7.73994581       9.26459737
C       -0.98519297      -7.99152408      10.07105133
C       -1.59966033      -9.24186924      10.02918995
O       -2.68553637      -9.48883764      10.82151346
C       -1.10468534     -10.23966554       9.18534008
Br      -1.91460712     -11.95230565       9.09614645
C        0.01380713      -9.99002439       8.38511153
H        3.61750488      -0.75903076       1.26851499
H        5.03034349      -2.20156895       2.70201170
H        4.04663010      -3.99932165       4.01104308
H        0.14019715      -2.98024762       2.47782988
H        0.36092989      -4.69720632       4.01992590
H        0.60771279      -6.76515684       9.31658654
H       -1.35014536      -7.20509336      10.72473032
H       -2.87439551      -8.70552562      11.36290868
H        0.40037652     -10.77078816       7.73422580
C       -0.00445707       0.01189536      -1.78238275
H       -0.66409135       0.67374010      -2.43557963
H        0.65740317      -0.63156657      -2.45157240
C       -0.90989263      -0.90692880      -0.91072765
C        0.90977584       0.90977584      -0.90977584
C       -0.00465871       1.77757030       0.00794375
H       -0.66225468       2.44313916      -0.64384735
H        0.64322798       2.43503045       0.67728295
C       -1.78241447       0.00034974      -0.00472694
H       -2.45427497      -0.65498947       0.64260836
H       -2.43311707       0.67328779      -0.65473579
C       -0.91132561       0.90220522       0.91563759
C       -0.01476271      -0.02253852       1.78660255
H       -0.67934791      -0.69751639       2.42135241
H        0.63392994       0.61504881       2.47327442
C        0.01484550      -1.77751727      -0.01636693
H        0.67870853      -2.42144646      -0.68295456
H       -0.62264859      -2.45592969       0.64226336
C        1.78714474       0.01002794       0.00389507
H        2.44202412       0.67113390       0.66197326
H        2.45385902      -0.65136977      -0.64189061
C        0.91606151      -0.90478549       0.90901405
