145
Properties=species:S:1:pos:R:3 pbc="F F F"
C        0.00000000       0.00000000       0.00000000
C       -0.06759800       4.93885880      -1.64923893
O        1.10472563       4.34623985      -2.19737149
C        1.32764443       3.02598754      -1.89810583
C        0.52501141       2.21837142      -1.09457708
C        0.88327569       0.88327569      -0.88327569
C        2.03384603       0.34200230      -1.46042763
C        2.84834885       1.14442113      -2.26360694
C        4.06767302       0.59192245      -2.85938202
C        4.13504922      -0.04713362      -4.03398019
S        2.86097790      -0.43445000      -5.11636013
C        4.03133305      -1.13552347      -6.22650909
N        5.25947750      -1.10616705      -5.83505615
C        5.42845588      -0.52507543      -4.60028430
O        6.49832319      -0.42057166      -4.01809968
N        3.49552955      -1.65707623      -7.36691855
C        4.16439480      -2.18919498      -8.48143568
C        3.47861428      -3.09756399      -9.30557597
C        4.10657957      -3.70609747     -10.39663874
C        5.43615590      -3.41343350     -10.68502598
C        6.12963218      -2.52025446      -9.87392226
Br       7.93378636      -2.11005043     -10.26843835
C        5.50708845      -1.92186641      -8.77513049
C        2.48430930       2.47953045      -2.47390824
O        3.27789346       3.27994254      -3.25885072
H       -0.11269273       5.97433111      -2.00019415
H       -0.02313801       4.95808458      -0.55542962
H       -0.97022217       4.42865408      -2.00121606
H       -0.37425852       2.60032216      -0.62397358
H        2.29835529      -0.69733945      -1.28080891
H        4.97692645       0.78527462      -2.29305484
H        2.48579206      -1.66689816      -7.41784380
H        2.44396460      -3.35827371      -9.09364115
H        3.55950520      -4.41328615     -11.01512763
H        5.92224679      -3.88638237     -11.53403788
H        6.07872379      -1.22762366      -8.16492127
H        2.84543943       4.15598811      -3.25455305
C        0.64286902      -2.85826256      -4.30510620
O       -0.72024458      -3.00541962      -3.92267278
C       -1.12492450      -2.32415403      -2.80265927
C       -0.32337951      -1.51833861      -1.99624179
C       -0.88327569      -0.88327569      -0.88327569
C       -2.23253174      -1.04285799      -0.56088623
C       -3.04387174      -1.85268447      -1.35982071
C       -4.45667913      -2.04182378      -1.02047459
C       -5.46069437      -1.24792589      -1.41327553
S       -5.38577281       0.18989825      -2.34701347
C       -7.13982673       0.30648518      -2.28897712
N       -7.73961831      -0.62264545      -1.62610283
C       -6.88178149      -1.54588920      -1.07599406
O       -7.22515657      -2.49054364      -0.38015100
N       -7.66188106       1.38933234      -2.93282314
C       -9.01233626       1.70728498      -3.15158422
C       -9.35769713       3.05025247      -3.37918159
C      -10.69011293       3.43970456      -3.54671247
C      -11.70421351       2.48829481      -3.49182969
C      -11.37753886       1.15538896      -3.26115009
Br     -12.75128986      -0.14368790      -3.19719652
C      -10.04738098       0.76701696      -3.07998852
C       -2.47930379      -2.48442811      -2.47401609
O       -3.26514090      -3.28565227      -3.26589356
H        0.79596402      -3.43619751      -5.22159903
H        1.31160119      -3.26334009      -3.53863729
H        0.88056881      -1.81279526      -4.52742152
H        0.72989033      -1.37139043      -2.20853711
H       -2.64875937      -0.54437895       0.31131357
H       -4.66841502      -2.94144073      -0.44540017
H       -6.99225799       2.05321166      -3.29769138
H       -8.58741115       3.81778969      -3.40971057
H      -10.93512329       4.48590782      -3.71213121
H      -12.73905250       2.79256439      -3.62341419
H       -9.82907379      -0.28296378      -2.90398383
H       -2.66929898      -3.62474026      -3.96194136
C       -3.90796718       3.35955804      -0.74702549
O       -3.68381859       3.30691738       0.65760101
C       -2.67945822       2.47966666       1.09261293
C       -1.87265162       1.67434240       0.29096588
C       -0.88327569       0.88327569       0.88327569
C       -0.68857448       0.88168133       2.26602016
C       -1.49539374       1.68155511       3.07942807
C       -1.31198278       1.67386261       4.53313211
C       -0.45897710       2.45250532       5.21041336
S        0.65754934       3.60266230       4.59777507
C        1.12816039       4.00685482       6.24362425
N        0.53009151       3.34433846       7.17411964
C       -0.37764859       2.42738765       6.69862850
O       -1.03276296       1.66677309       7.39631516
N        2.09778065       4.96063293       6.34251959
C        2.61098406       5.56661491       7.50100464
C        3.89599417       6.13296196       7.44965845
C        4.48618941       6.69996257       8.58334768
C        3.79741114       6.71267350       9.79248602
C        2.52639121       6.15003356       9.85965764
Br       1.58103270       6.17508907      11.49811792
C        1.94105527       5.57088103       8.73052678
C       -2.48284818       2.47327965       2.48162016
O       -3.28477951       3.26181316       3.27009406
H       -4.71414656       4.07673802      -0.92905206
H       -4.23324555       2.38655899      -1.12942835
H       -3.01865464       3.71726194      -1.27626861
H       -1.99363173       1.64265841      -0.78625293
H        0.08308571       0.25629444       2.70861601
H       -1.98036174       1.00390936       5.07098482
H        2.50466432       5.27091058       5.47049144
H        4.46449954       6.12156606       6.52226552
H        5.48546289       7.12391189       8.52289768
H        4.25713238       7.15478966      10.67224501
H        0.94609392       5.14278996       8.81932536
H       -3.89686469       3.70688438       2.65223151
C        5.08027804      -0.35231972       1.08790198
O        4.43192161      -1.35914145       1.85727392
C        3.07025396      -1.45908521       1.72239864
C        2.26274949      -0.65678373       0.91842668
C        0.88327569      -0.88327569       0.88327569
C        0.29630960      -1.89817018       1.64179619
C        1.09615826      -2.70504135       2.45517732
C        0.48865950      -3.76105318       3.26926481
C        0.24857831      -5.01310997       2.86020751
S        0.52344350      -5.70526189       1.31418264
C       -0.04995625      -7.25472004       1.91755489
N       -0.42962915      -7.26832914       3.14966660
C       -0.31654772      -6.04763957       3.77257290
O       -0.64940450      -5.81884726       4.92640845
N       -0.05226160      -8.26072377       0.99690969
C       -0.35210387      -9.61929018       1.18944920
C       -0.77432589     -10.37703140       0.08392073
C       -1.14238950     -11.71902660       0.22048374
C       -1.09185457     -12.32964642       1.46995653
C       -0.68137464     -11.58983879       2.57483584
Br      -0.59975676     -12.41831839       4.27361265
C       -0.32632142     -10.24475820       2.44191575
C        2.47667531      -2.47583149       2.48524119
O        3.27387068      -3.25986420       3.28295186
H        6.15418878      -0.42136068       1.28628306
H        4.74811412       0.64660564       1.38886770
H        4.92885951      -0.51504346       0.01574500
H        2.67757102       0.14488261       0.31734880
H       -0.77893289      -2.05607896       1.60467867
H        0.27992432      -3.47638409       4.29894751
H        0.18898441      -7.99648515       0.05126813
H       -0.84016247      -9.92102072      -0.90152621
H       -1.47521930     -12.28354024      -0.64697426
H       -1.37713227     -13.37299142       1.57404315
H       -0.00855848      -9.69850779       3.32607209
H        4.18049520      -2.91820861       3.15727678
