153
Properties=species:S:1:pos:R:3 pbc="F F F"
C        0.00000000       0.00000000       0.00000000
C       -0.06759800       4.93885880      -1.64923893
O        1.10472563       4.34623985      -2.19737149
C        1.32764443       3.02598754      -1.89810583
C        0.52501141       2.21837142      -1.09457708
C        0.88327569       0.88327569      -0.88327569
C        2.03384603       0.34200230      -1.46042763
C        2.84834885       1.14442113      -2.26360694
C        4.06767302       0.59192245      -2.85938202
C        4.13504922      -0.04713362      -4.03398019
S        2.86097790      -0.43445000      -5.11636013
C        4.03133305      -1.13552347      -6.22650909
N        5.25947750      -1.10616705      -5.83505615
C        5.42845588      -0.52507543      -4.60028430
O        6.49832319      -0.42057166      -4.01809968
N        3.49552955      -1.65707623      -7.36691855
C        4.16439480      -2.18919498      -8.48143568
C        3.47861428      -3.09756399      -9.30557597
C        4.10657957      -3.70609747     -10.39663874
C        5.43615590      -3.41343350     -10.68502598
C        6.12963218      -2.52025446      -9.87392226
C        5.50708845      -1.92186641      -8.77513049
C        2.48430930       2.47953045      -2.47390824
O        3.27789346       3.27994254      -3.25885072
H       -0.11269273       5.97433111      -2.00019415
H       -0.02313801       4.95808458      -0.55542962
H       -0.97022217       4.42865408      -2.00121606
H       -0.37425852       2.60032216      -0.62397358
H        2.29835529      -0.69733945      -1.28080891
H        4.97692645       0.78527462      -2.29305484
H        2.48579206      -1.66689816      -7.41784380
H        2.44396460      -3.35827371      -9.09364115
H        3.55950520      -4.41328615     -11.01512763
H        5.92224679      -3.88638237     -11.53403788
H        6.07872379      -1.22762366      -8.16492127
H        2.84543943       4.15598811      -3.25455305
C        7.50292268      -2.20801435     -10.17422099
C        8.65305347      -1.94651326     -10.42572117
Br      10.51271769      -1.52368811     -10.83237569
C        0.74347155      -3.33074203      -3.93322926
O       -0.65709326      -3.31103426      -3.68020945
C       -1.09204835      -2.48424437      -2.67544508
C       -0.29051829      -1.67797155      -1.86947006
C       -0.88327569      -0.88327569      -0.88327569
C       -2.26582066      -0.88329890      -0.68715642
C       -3.07815576      -1.69187125      -1.48634991
C       -4.52823813      -1.71354394      -1.27719542
C       -5.40505053      -0.87434904      -1.84249622
S       -5.09726313       0.44728490      -2.89290980
C       -6.82798737       0.73127594      -3.02560725
N       -7.57849534      -0.06558098      -2.34429027
C       -6.87427049      -1.00324793      -1.62614631
O       -7.37545934      -1.83587617      -0.88451570
N       -7.17463341       1.78630915      -3.81704761
C       -8.45937293       2.20402314      -4.20128571
C       -8.64299879       3.54287549      -4.58650295
C       -9.90730850       4.03497143      -4.92478377
C      -11.01408336       3.19227733      -4.88594235
C      -10.84822168       1.86543757      -4.50051588
C       -9.58730126       1.37601456      -4.14906583
C       -2.48031793      -2.48383834      -2.47359171
O       -3.26716865      -3.28553294      -3.26398514
H        0.92095164      -4.01105825      -4.77172592
H        1.29333524      -3.71554821      -3.06816322
H        1.10641395      -2.34004705      -4.22601488
H        0.78737642      -1.65176794      -1.98564569
H       -2.70793483      -0.26181761       0.08792769
H       -4.88324786      -2.52611743      -0.64589062
H       -6.40970967       2.34445503      -4.17148306
H       -7.79876556       4.22854663      -4.60911311
H      -10.02765512       5.07695654      -5.21064811
H      -11.99570694       3.57609921      -5.15029457
H       -9.49476977       0.33384579      -3.85509742
H       -2.64718732      -3.74778368      -3.86100959
C      -11.98952114       0.98796928      -4.46757746
C      -12.94535944       0.25308959      -4.43999153
Br     -14.49086912      -0.93514872      -4.39538742
C       -3.67387005       3.61054064      -0.76391096
O       -3.53272321       3.47014350       0.64547027
C       -2.60034450       2.56526343       1.08612988
C       -1.79375054       1.75965832       0.28455104
C       -0.88327569       0.88327569       0.88327569
C       -0.76751421       0.79660832       2.27215344
C       -1.57507837       1.59615033       3.08514821
C       -1.47491568       1.50024188       4.54381993
C       -0.62113425       2.19196327       5.30879827
S        0.58827298       3.30824055       4.82292046
C        0.98594722       3.59641838       6.51184752
N        0.30154801       2.91993068       7.36998393
C       -0.62563019       2.08261206       6.79542250
O       -1.35897864       1.32402208       7.41285049
N        1.99810488       4.48711991       6.71635684
C        2.47663400       5.00016551       7.93310399
C        3.79097581       5.49480990       7.98279215
C        4.34557830       5.96596301       9.17673613
C        3.59113878       5.95285982      10.34602734
C        2.29004745       5.46027184      10.31307560
C        1.73938065       4.97648459       9.12324859
C       -2.48329115       2.47337452       2.48108232
O       -3.28517838       3.26266952       3.26883883
H       -4.42888439       4.38091820      -0.94797007
H       -4.02862815       2.67939161      -1.21764358
H       -2.73814867       3.94516800      -1.22366870
H       -1.85508995       1.79261244      -0.79766517
H       -0.05674583       0.10574276       2.71933616
H       -2.20758621       0.84134880       5.00632090
H        2.46972558       4.82012945       5.88633383
H        4.40963198       5.50094157       7.08802245
H        5.36794093       6.33530273       9.19398489
H        4.02334760       6.32049309      11.27275681
H        0.71949069       4.60125334       9.13425875
H       -3.83659445       3.77412291       2.64526323
C        1.50307785       5.45321736      11.51898981
C        0.84399081       5.44730923      12.52894296
Br      -0.22169718       5.43775629      14.16195179
C        4.86181170       0.19633840       1.85502643
O        4.28708994      -1.00589021       2.35535683
C        2.99401208      -1.27421564       1.98351008
C        2.18687018      -0.47237502       1.17871470
C        0.88327569      -0.88327569       0.88327569
C        0.37134231      -2.08287116       1.38206249
C        1.17043686      -2.89181934       2.19412072
C        0.63740869      -4.14367740       2.73789141
C        0.66900703      -5.33167084       2.12121792
S        1.27148046      -5.71147001       0.55993755
C        0.88353905      -7.40504721       0.83373242
N        0.34048500      -7.67673327       1.97114834
C        0.15981973      -6.57286844       2.77097657
O       -0.36668329      -6.58836693       3.87416758
N        1.17890853      -8.23426443      -0.20780110
C        1.08451907      -9.63454512      -0.26242868
C        0.95512286     -10.25037439      -1.51887100
C        0.79934916     -11.63487005      -1.63709838
C        0.77276537     -12.43100539      -0.49602238
C        0.89377210     -11.83423501       0.75529289
C        1.03582037     -10.44917900       0.87535316
C        2.47531996      -2.47727386       2.48515417
O        3.27025712      -3.26170978       3.28471983
H        5.89312051       0.24839004       2.21710206
H        4.32913616       1.07406742       2.23530744
H        4.89317128       0.19404598       0.76052267
H        2.54387425       0.46857908       0.77474204
H       -0.64646968      -2.38335516       1.14493927
H        0.24036963      -4.06642780       3.74845849
H        1.50462772      -7.78519299      -1.05308301
H        0.95498242      -9.65111799      -2.42676837
H        0.69133465     -12.08897437      -2.61896234
H        0.65280889     -13.50692220      -0.58982879
H        1.12979444     -10.01780678       1.86842019
H        4.11611317      -2.77881117       3.36105625
C        0.87563403     -12.65548637       1.93800892
C        0.86044340     -13.34328439       2.92853359
Br       0.83588144     -14.45539561       4.53012821
