129
Properties=species:S:1:pos:R:3 pbc="F F F"
C        0.00000000       0.00000000       0.00000000
C        0.88306761       0.88306761      -0.88306761
C        0.43250099       2.14200978      -1.26359760
C        1.24802042       2.94438126      -2.05446813
C        2.50158075       2.48294288      -2.46688333
C        2.95598347       1.20113181      -2.12395185
N        4.21112562       0.69121356      -2.50311951
C        5.17763097       1.31216897      -3.23795459
N        5.38143805       2.56585979      -3.44023470
C        6.44305760       2.73091893      -4.28047652
O        6.93900511       3.80483980      -4.58941813
C        7.03397125       1.51598989      -4.89304774
S        6.30497062       0.22684702      -4.04164224
C        7.96727583       1.44455964      -5.99962522
H        8.28864423       2.38670915      -6.43700503
C        8.70785945       0.24533858      -6.38134370
C       10.04311982       0.16261964      -5.96612533
C       10.80917532      -0.95802059      -6.28301626
Cl      12.44391399      -1.04475626      -5.75448956
C       10.26297581      -2.00490976      -7.01853814
C        8.93640962      -1.92619664      -7.44410519
Br       8.23546866      -3.37504236      -8.45105607
C        8.15567249      -0.80441631      -7.13256999
O        6.86256248      -0.76202766      -7.58403800
C        2.13219392       0.41504825      -1.29787383
H       -0.54039721       2.50862136      -0.94778724
H        0.91488840       3.93563621      -2.35348041
H        3.09880857       3.14721387      -3.08246714
H        4.28195108      -0.31860747      -2.46227053
H       10.48831267       0.96937530      -5.38621609
H       10.86951562      -2.87418767      -7.25871278
H        6.45171938       0.08034045      -7.33384846
H        2.46417015      -0.56820269      -0.97729816
C       -0.88306761      -0.88306761      -0.88306761
C       -0.44910165      -2.15687027      -1.23213644
C       -1.26482639      -2.95878829      -2.02325513
C       -2.50186734      -2.48230460      -2.46723502
C       -2.93855750      -1.18626932      -2.15624032
N       -4.17688548      -0.66067566      -2.56789754
C       -5.14119667      -1.27744428      -3.30911358
N       -5.36453612      -2.53075087      -3.49224555
C       -6.41353723      -2.69200119      -4.34891462
O       -6.92363298      -3.76225200      -4.64737805
C       -6.97050731      -1.47808660      -4.99441497
S       -6.23333300      -0.18685958      -4.15326731
C       -7.88198585      -1.41021593      -6.11925891
H       -8.21277107      -2.35431026      -6.54527707
C       -8.59307746      -0.20498545      -6.53647881
C       -9.93392161      -0.09022711      -6.14771606
C      -10.67311871       1.03811810      -6.49917038
Cl     -12.31533164       1.16445896      -6.00277461
C      -10.09424039       2.06102601      -7.24338981
C       -8.76182431       1.95023845      -7.64273232
Br      -8.01583897       3.36710181      -8.66274521
C       -8.00787405       0.82038626      -7.29633837
O       -6.70775558       0.74603987      -7.72285710
C       -2.11551018      -0.40013046      -1.32947536
H        0.51089594      -2.53523507      -0.89167226
H       -0.94476897      -3.96133818      -2.29789787
H       -3.10000588      -3.14689387      -3.08158982
H       -4.22967173       0.35085374      -2.54679615
H      -10.40452817      -0.87781609      -5.56155980
H      -10.68004485       2.93660995      -7.51060583
H       -6.31726423      -0.09888805      -7.44975600
H       -2.43495418       0.59479766      -1.03310910
C       -0.88306761       0.88306761       0.88306761
C       -0.44366827       2.15218630       1.24225380
C       -1.25932838       2.95425010       2.03329134
C       -2.50177713       2.48250980       2.46712003
C       -2.94425804       1.19095062       2.14585848
N       -4.18809179       0.67030060       2.54706630
C       -5.15313005       1.28839885       3.28622562
N       -5.37014837       2.54190675       3.47547742
C       -6.42324940       2.70432399       4.32687965
O       -6.92878008       3.77580491       4.62867805
C       -6.99120302       1.48994873       4.96185713
S       -6.25668292       0.19935514       4.11742182
C       -7.90973240       1.42085243       6.08087586
H       -8.23746155       2.36436287       6.51053399
C       -8.63039479       0.21742458       6.48672236
C       -9.96956017       0.11293118       6.08937343
C      -10.71748236      -1.01305877       6.42974740
Cl     -12.35743497      -1.12670843       5.92292074
C      -10.14908590      -2.04376441       7.17128271
C       -8.81843457      -1.94325407       7.57913767
Br      -8.08690172      -3.37052267       8.59510332
C       -8.05578091      -0.81587471       7.24391996
O       -6.75780271      -0.75177288       7.67854299
C       -2.12097068       0.40483242       1.31931290
H        0.52055249       2.52684560       0.90971828
H       -0.93499330       3.95324170       2.31577002
H       -3.09961959       3.14700098       3.08186900
H       -4.24672424      -0.34075514       2.51964505
H      -10.43201726       0.90674956       5.50513724
H      -10.74162777      -2.91741572       7.42982868
H       -6.36071316       0.09241848       7.41277665
H       -2.44451831      -0.58641303       1.01516034
C        0.88306761      -0.88306761       0.88306761
C        0.39560258      -2.10205299       1.34045280
C        1.21056707      -2.90553361       2.13076914
C        2.50080528      -2.48450443       2.46609725
C        2.99483033      -1.24122133       2.04501547
N        4.28724894      -0.77334315       2.34486660
C        5.25828735      -1.40517181       3.06429537
N        5.41591482      -2.65680711       3.31481061
C        6.50673990      -2.83340146       4.11431168
O        6.96871250      -3.91436687       4.45018366
C        7.17795866      -1.62117217       4.64387805
S        6.46793539      -0.33853761       3.76698689
C        8.16335004      -1.54416331       5.70394734
H        8.46278418      -2.47996271       6.16961151
C        8.97264084      -0.36462486       5.99727602
C       10.28975930      -0.36165132       5.52045416
C       11.11804111       0.73544783       5.75157770
Cl      12.72900340       0.72369549       5.14833938
C       10.65271396       1.83761619       6.46150643
C        9.34492344       1.83869547       6.94809019
Br       8.75529061       3.36103740       7.91722916
C        8.50218565       0.74136821       6.72300873
O        7.23056891       0.77829905       7.23230296
C        2.16927965      -0.45516205       1.22067431
H       -0.60593821      -2.43709806       1.08485154
H        0.84831072      -3.86634809       2.48934621
H        3.09593194      -3.14783370       3.08472393
H        4.40040455       0.22938852       2.25459811
H       10.67197925      -1.21269709       4.95922772
H       11.30723872       2.68782015       6.63462216
H        6.77206696      -0.05447972       7.03936160
H        2.52904039       0.49677068       0.84099591
