185
Properties=species:S:1:pos:R:3 pbc="F F F"
C        0.00000000       0.00000000       0.00000000
C       11.26120239       5.51393173      -8.07641212
C        9.87944089       5.02751741      -7.67636031
O        9.18933995       4.66039785      -8.87169031
C        7.86849802       4.31440012      -8.73004266
C        7.27776511       3.82076348      -7.56446373
C        5.92185215       3.46346125      -7.56693416
C        5.28933291       2.86766256      -6.38513751
C        4.74651493       3.50372375      -5.32438475
C        4.75953176       4.96889539      -5.15759914
O        5.26891641       5.76170807      -5.93961742
N        4.16300446       5.41393689      -4.01301689
C        3.47166067       4.68985046      -3.07637035
S        2.90917786       5.55939509      -1.75027123
N        3.35128706       3.31852360      -3.31574166
C        4.06751242       2.64161721      -4.31261134
O        4.13920870       1.41438426      -4.40181707
C        2.49228058       2.51009436      -2.49549421
C        3.06448321       1.52814321      -1.66847241
C        2.26249715       0.71772560      -0.86350219
C        0.88144766       0.88144766      -0.88144766
C        0.29387281       1.83546991      -1.71231889
C        1.08601711       2.64452681      -2.54777200
C        0.37537944       3.60143138      -3.46621609
C        5.15842365       3.61257847      -8.73296686
C        5.74864391       4.10036471      -9.89816165
C        7.10057171       4.43635938      -9.89708653
O        7.70635565       4.89167839     -11.04065260
H       11.82782420       5.84725961      -7.20188708
H       11.19132902       6.34116820      -8.79119845
H       11.82084124       4.71212753      -8.57253054
H        9.34420460       5.83278633      -7.16254030
H        9.98911940       4.16338666      -7.01394113
H        7.85557591       3.68282971      -6.65661863
H        5.23738968       1.78165216      -6.45360715
H        4.21157521       6.41582820      -3.86932622
H        4.14253175       1.38715578      -1.64375536
H        2.72325051      -0.03559522      -0.23083143
H       -0.79002103       1.94086858      -1.72828258
H        0.99367098       3.89011771      -4.32149781
H        0.07586038       4.50125460      -2.92036163
H       -0.52469893       3.13280669      -3.88118048
H        4.10721153       3.33383153      -8.73566427
H        8.64152331       5.03500616     -10.79897331
C        4.93776378       4.22703398     -11.08138957
C        4.25865167       4.33311950     -12.07234295
Br       3.16058483       4.50465080     -13.67463076
C       -5.08596858     -10.67033205      -9.09524562
C       -4.93587577      -9.75291522      -7.89452762
O       -5.54046334     -10.40440859      -6.77655618
C       -5.62191327      -9.67372530      -5.61730223
C       -4.78639382      -8.61096947      -5.26562903
C       -4.95050553      -7.97495034      -4.02679168
C       -4.04110709      -6.90945739      -3.59156851
C       -4.11454246      -5.58984611      -3.87023485
C       -5.14111851      -4.99731282      -4.74759496
O       -6.01921930      -5.62445112      -5.32657148
N       -5.03883781      -3.64512126      -4.90599918
C       -4.18616363      -2.77624189      -4.27547597
S       -4.29759447      -1.16706391      -4.75418579
N       -3.30642668      -3.33458536      -3.34454028
C       -3.11034876      -4.71466995      -3.19672227
O       -2.19584116      -5.21813268      -2.54143619
C       -2.50772358      -2.48900734      -2.50113822
C       -1.11126970      -2.48892384      -2.66090529
C       -0.30116170      -1.68736527      -1.85519798
C       -0.88144766      -0.88144766      -0.88144766
C       -2.26357623      -0.88494083      -0.69314454
C       -3.09273890      -1.70484430      -1.48073272
C       -4.56534426      -1.70621257      -1.17147008
C       -5.95825361      -8.39699661      -3.14871877
C       -6.78923916      -9.46105742      -3.49687368
C       -6.61084867     -10.10279572      -4.72037323
O       -7.39991688     -11.16937285      -5.06939692
H       -4.67339520     -10.20712000      -9.99645569
H       -6.13968628     -10.91315159      -9.27085780
H       -4.56647348     -11.61974295      -8.91928288
H       -5.44033779      -8.80236775      -8.09682569
H       -3.87013164      -9.58423479      -7.71208076
H       -3.99038272      -8.28020114      -5.92444039
H       -3.26318361      -7.28287655      -2.92658882
H       -5.71157784      -3.23924697      -5.54590482
H       -0.64224097      -3.11405985      -3.41714206
H        0.77617019      -1.70077044      -1.99388647
H       -2.70233951      -0.26130920       0.08451859
H       -5.06252708      -2.61236627      -1.53039315
H       -5.04859736      -0.83155302      -1.61732623
H       -4.72636580      -1.67545972      -0.08746273
H       -6.08458813      -7.90506308      -2.18705612
H       -7.07441106     -11.45724210      -5.94384963
C       -7.80460744      -9.87716587      -2.56441402
C       -8.65497838     -10.22565669      -1.78347905
Br     -10.02995626     -10.78913687      -0.52077326
C       -9.15287369       5.07019086      10.62848169
C       -7.94429072       4.91707067       9.72195722
O       -6.82699122       5.50326727      10.39116961
C       -5.65942678       5.58017475       9.67333926
C       -5.30533939       4.75202365       8.60562927
C       -4.05833369       4.90978265       7.98413121
C       -3.62143698       4.00692002       6.91377599
C       -3.88559876       4.09682262       5.59220205
C       -4.74614200       5.13850697       5.00137731
O       -5.32254144       6.01608020       5.63162026
N       -4.89152382       5.05179723       3.64663719
C       -4.26080838       4.20159935       2.77547376
S       -4.72159085       4.33455254       1.16270079
N       -3.34482895       3.30653319       3.33419018
C       -3.21339211       3.09473928       4.71360959
O       -2.57282002       2.16833662       5.21425339
C       -2.50094435       2.50784769       2.48907711
C       -2.67506208       1.11320506       2.47283169
C       -1.86944318       0.30305485       1.67122692
C       -0.88144766       0.88144766       0.88144766
C       -0.67897978       2.26143476       0.90124707
C       -1.46647614       3.09026048       1.72157930
C       -1.14210863       4.55947901       1.74143927
C       -3.17437337       5.90395158       8.42564404
C       -3.52500307       6.72751926       9.49464794
C       -4.75687898       6.55526470      10.12187393
O       -5.10883483       7.33690266      11.19294915
H      -10.05341675       4.67179708      10.15175706
H       -9.32014943       6.12312310      10.88042313
H       -8.99214546       4.53915313      11.57420071
H       -8.13149433       5.43336241       8.77467449
H       -7.77107556       3.85127939       9.54409225
H       -5.96883194       3.96635034       8.25984197
H       -2.96841497       3.21832416       7.28590986
H       -5.52021933       5.73529416       3.24121614
H       -3.44254309       0.64565636       3.08524343
H       -2.01934126      -0.77285786       1.67200332
H        0.10959825       2.69848302       0.29024536
H       -1.50529830       5.05101638       2.64897182
H       -1.57385145       5.05631538       0.86730978
H       -0.05624072       4.70953003       1.72351749
H       -2.20639938       6.02533649       7.94497145
H       -5.98953602       7.01756079      11.46840597
C       -2.58652168       7.72880324       9.93086241
C       -1.80054351       8.56737858      10.29619203
Br      -0.52968330       9.92328397      10.88689913
C        6.97006117     -11.58564785       6.29583722
C        6.72341934     -10.25731093       5.60258834
O        7.91434482      -9.91436363       4.89271966
C        7.93542408      -8.67531145       4.30220526
C        6.81306346      -7.94449028       3.90543857
C        6.97635852      -6.70457348       3.27131555
C        5.82385494      -5.94801281       2.77026523
C        5.03573183      -5.08786719       3.45102441
C        5.18689728      -4.80810554       4.89102346
O        6.01896628      -5.32623705       5.62503857
N        4.28671889      -3.91184495       5.39139440
C        3.35263215      -3.17371023       4.71153911
S        2.36295232      -2.19696690       5.65892497
N        3.31011317      -3.34941310       3.32602605
C        3.99773541      -4.36967402       2.65433155
O        3.80813077      -4.67256801       1.47471126
C        2.49918312      -2.48984941       2.50883662
C        1.39397705      -3.03458916       1.83253262
C        0.58731789      -2.23344054       1.02296651
C        0.88144766      -0.88144766       0.88144766
C        1.98706458      -0.32765017       1.52694686
C        2.82444930      -1.12610629       2.32776034
C        4.03638839      -0.47229378       2.93434473
C        8.26250657      -6.19449093       3.04697148
C        9.38333511      -6.92576163       3.43807353
C        9.21751637      -8.16587857       4.05062268
O       10.30788288      -8.91315974       4.41764402
H        6.10181051     -11.88454160       6.89061878
H        7.84632295     -11.52669798       6.95067473
H        7.17714517     -12.37008073       5.55827340
H        6.49579325      -9.49193156       6.35180641
H        5.88261169     -10.37218614       4.91164936
H        5.80992678      -8.32952209       4.05557538
H        5.66621173      -6.10292243       1.70351483
H        4.35465480      -3.75231772       6.38975711
H        1.15126473      -4.08997201       1.93220615
H       -0.26265019      -2.67265957       0.50847733
H        2.21476832       0.72899244       1.39335425
H        4.81184858      -1.19904517       3.19439275
H        3.75694851       0.08998115       3.83050925
H        4.49242849       0.22175668       2.21861644
H        8.38948550      -5.23368005       2.55354177
H        9.94257004      -9.73499535       4.79793739
C       10.68950994      -6.37769139       3.17898600
C       11.78343135      -5.91868257       2.96200020
Br      13.55220976      -5.17650413       2.61115251
