198
Properties=species:S:1:pos:R:3 pbc="F F F"
C       12.17110642       6.42383576      -8.98631614
C       10.78934491       5.93742143      -8.58626434
O       10.09924397       5.57030187      -9.78159433
C        8.77840204       5.22430415      -9.63994668
C        8.18766913       4.73066750      -8.47436775
C        6.83175617       4.37336527      -8.47683818
C        6.19923694       3.77756659      -7.29504153
C        5.65641896       4.41362777      -6.23428878
C        5.66943578       5.87879942      -6.06750316
O        6.17882044       6.67161209      -6.84952144
N        5.07290848       6.32384091      -4.92292092
C        4.38156470       5.59975449      -3.98627438
S        3.81908188       6.46929912      -2.66017525
N        4.26119108       4.22842763      -4.22564569
C        4.97741645       3.55152123      -5.22251537
O        5.04911272       2.32428829      -5.31172109
C        3.40218460       3.41999838      -3.40539823
C        3.97438724       2.43804724      -2.57837643
C        3.17240118       1.62762962      -1.77340622
C        1.79135169       1.79135169      -1.79135169
C        1.20377684       2.74537393      -2.62222292
C        1.99592113       3.55443084      -3.45767603
C        1.28528346       4.51133540      -4.37612011
C        6.06832767       4.52248250      -9.64287089
C        6.65854793       5.01026874     -10.80806567
Br       5.59162124       5.17693557     -12.36491410
C        8.01047573       5.34626341     -10.80699055
O        8.61625967       5.80158242     -11.95055662
H       12.73772822       6.75716364      -8.11179111
H       12.10123304       7.25107222      -9.70110247
H       12.73074526       5.62203155      -9.48243456
H       10.25410862       6.74269035      -8.07244432
H       10.89902342       5.07329069      -7.92384516
H        8.76547994       4.59273374      -7.56652265
H        6.14729370       2.69155618      -7.36351118
H        5.12147924       7.32573222      -4.77923025
H        5.05243577       2.29705980      -2.55365939
H        3.63315453       0.87430881      -1.14073545
H        0.11988300       2.85077260      -2.63818661
H        1.90357501       4.80002173      -5.23140184
H        0.98576440       5.41115863      -3.83026565
H        0.38520510       4.04271072      -4.79108451
H        5.01711555       4.24373555      -9.64556830
H        9.55142734       5.94491019     -11.70887733
C       -8.08543385     -12.46246088      -7.03336358
C       -7.81334919     -11.11828121      -6.38140029
O       -9.01580475     -10.70339888      -5.73193654
C       -9.01067402      -9.44232659      -5.18965227
C       -7.87634071      -8.73925013      -4.77711355
C       -8.01482122      -7.47027065      -4.19686776
C       -6.85330164      -6.73855456      -3.67998886
C       -6.00719437      -5.93584437      -4.36129676
C       -6.09313067      -5.70701789      -5.81558979
O       -6.91662990      -6.22178331      -6.56154076
N       -5.14049872      -4.86541425      -6.31375735
C       -4.20451060      -4.13691436      -5.62616859
S       -3.14257693      -3.23575469      -6.57022463
N       -4.22095334      -4.25988050      -4.23443056
C       -4.97261602      -5.22659963      -3.55223739
O       -4.83941964      -5.49013077      -2.35557170
C       -3.40836025      -3.40014391      -3.41907706
C       -2.35144057      -3.95920111      -2.68016922
C       -1.54510568      -3.15793094      -1.87040040
C       -1.79135169      -1.79135169      -1.79135169
C       -2.84948516      -1.22203232      -2.49985621
C       -3.68672418      -2.01911823      -3.30218558
C       -4.84858189      -1.34441826      -3.97973883
C       -9.28759942      -6.90387153      -4.04221011
C      -10.42063321      -7.60723332      -4.44901581
Br     -12.12138674      -6.80930248      -4.20278169
C      -10.28045087      -8.87566542      -5.00761341
O      -11.38459674      -9.59521851      -5.38858347
H       -7.20778280     -12.81674246      -7.58215770
H       -8.93351180     -12.39624197      -7.72365396
H       -8.35053370     -13.20917701      -6.27550067
H       -7.52804331     -10.39181706      -7.14938292
H       -7.00421207     -11.23760263      -5.65434457
H       -6.88406504      -9.16725555      -4.87341573
H       -6.74200447      -6.85752332      -2.60283327
H       -5.16460880      -4.74253504      -7.31929787
H       -2.14653176      -5.02604129      -2.73058190
H       -0.73285287      -3.60835081      -1.30699511
H       -3.04063230      -0.15317412      -2.41503578
H       -5.64150056      -2.05112489      -4.24237311
H       -4.51394585      -0.82844179      -4.88480103
H       -5.30374773      -0.60632280      -3.30892979
H       -9.39542585      -5.92044347      -3.59055008
H      -11.03761173     -10.44441182      -5.72319131
C      -10.22793106       5.94025925      11.41306801
C       -8.99741206       5.77729016      10.53832846
O       -7.88416016       6.30930281      11.25767720
C       -6.69357370       6.37183930      10.57723987
C       -6.33178588       5.56514705       9.49577145
C       -5.06237195       5.70321049       8.91637718
C       -4.61997080       4.81943661       7.83243764
C       -4.84110836       4.95623507       6.50699207
C       -5.65223281       6.04053635       5.92296920
O       -6.22139040       6.91625269       6.56231088
N       -5.75889520       5.99825081       4.56252430
C       -5.12734635       5.15533682       3.68491039
S       -5.53481547       5.34970200       2.06403878
N       -4.25553864       4.21678510       4.24294066
C       -4.17235669       3.96053055       5.61856581
O       -3.57486947       3.00074653       6.10950610
C       -3.41028447       3.41809532       3.39920142
C       -3.62486004       2.03046926       3.33548160
C       -2.81949662       1.22020480       2.53373561
C       -1.79135169       1.79135169       1.79135169
C       -1.54899128       3.16336956       1.85901284
C       -2.33626671       3.99119041       2.68057087
C       -1.96948763       5.44865576       2.75459559
C       -4.16330965       6.65662816       9.41374325
C       -4.52181726       7.45859794      10.49646713
Br      -3.26670342       8.72045047      11.14631701
C       -5.77671619       7.30542360      11.08158990
O       -6.13784756       8.06548044      12.16507072
H      -11.12493128       5.58362441      10.89812727
H      -10.37167337       6.98990241      11.69183196
H      -10.11172176       5.37694066      12.34654896
H       -9.14046016       6.32672614       9.60205699
H       -8.85036445       4.71243567      10.33335914
H       -7.00733981       4.81052082       9.10687570
H       -4.00207996       4.00074565       8.19953545
H       -6.35456817       6.71217934       4.15969420
H       -4.42403406       1.56859782       3.91052307
H       -3.00099661       0.14978578       2.49741640
H       -0.72968098       3.59408558       1.28507564
H       -2.34542654       5.92403356       3.66553847
H       -2.35965104       5.98392452       1.88361312
H       -0.87962559       5.56612158       2.77325316
H       -3.17802658       6.76267375       8.96571907
H       -7.03553821       7.76505344      12.40462320
C        5.88690847     -11.14489635      10.54945350
C        5.69949029     -10.33459555       9.27894484
O        6.11936830     -11.14865516       8.18311671
C        6.14784173     -10.54352665       6.95128449
C        5.38446528      -9.43724963       6.57098947
C        5.47748514      -8.94202128       5.26245322
C        4.63248422      -7.83321067       4.80615016
C        4.85924561      -6.50811252       4.93697737
C        6.02345015      -5.94590158       5.64638663
O        6.89399976      -6.60386210       6.20209211
N        6.06675143      -4.58154248       5.67137641
C        5.23885967      -3.69179925       5.03693463
S        5.55157812      -2.06507432       5.33190381
N        4.21765424      -4.24060030       4.25700985
C        3.87744734      -5.60034744       4.27365827
O        2.85586086      -6.06508852       3.76417272
C        3.41870987      -3.39972191       3.40914944
C        2.05295567      -3.23837540       3.69947983
C        1.24249904      -2.43631477       2.89462321
C        1.79135169      -1.79135169       1.79135169
C        3.13961481      -1.95727544       1.47448342
C        3.96530297      -2.78120646       2.26151856
C        5.39068005      -2.96594368       1.81611524
C        6.34331249      -9.54841543       4.34195313
C        7.10170869     -10.65584290       4.71933075
Br       8.24410955     -11.45380200       3.43555936
C        6.99240648     -11.15669057       6.01463264
O        7.70915748     -12.26214019       6.39710104
H        5.61661857     -10.55784492      11.43221948
H        6.92547958     -11.47893937      10.64898879
H        5.26433691     -12.04709618      10.52377829
H        6.31004280      -9.42720470       9.33199579
H        4.64128074     -10.07333816       9.18154037
H        4.69667097      -8.96413147       7.26393388
H        3.75740914      -8.18442063       4.26053129
H        6.83814318      -4.18956760       6.19873093
H        1.60859427      -3.73659604       4.55796465
H        0.18919137      -2.32371390       3.13529352
H        3.55162887      -1.45940472       0.59780861
H        5.83468567      -3.88109147       2.21922144
H        5.99854221      -2.10840981       2.12023666
H        5.43955719      -3.05494818       0.72449496
H        6.41430283      -9.16564376       3.32647281
H        7.45117599     -12.43029970       7.32373917
C       -0.00445707       0.01189536      -1.78238275
H       -0.66409135       0.67374010      -2.43557963
H        0.65740317      -0.63156657      -2.45157240
C       -0.90989263      -0.90692880      -0.91072765
C        0.90977584       0.90977584      -0.90977584
C       -0.00465871       1.77757030       0.00794375
H       -0.66225468       2.44313916      -0.64384735
H        0.64322798       2.43503045       0.67728295
C       -1.78241447       0.00034974      -0.00472694
H       -2.45427497      -0.65498947       0.64260836
H       -2.43311707       0.67328779      -0.65473579
C       -0.91132561       0.90220522       0.91563759
C       -0.01476271      -0.02253852       1.78660255
H       -0.67934791      -0.69751639       2.42135241
H        0.63392994       0.61504881       2.47327442
C        0.01484550      -1.77751727      -0.01636693
H        0.67870853      -2.42144646      -0.68295456
H       -0.62264859      -2.45592969       0.64226336
C        1.78714474       0.01002794       0.00389507
H        2.44202412       0.67113390       0.66197326
H        2.45385902      -0.65136977      -0.64189061
C        0.91606151      -0.90478549       0.90901405
