197
Properties=species:S:1:pos:R:3 pbc="F F F"
C        0.00000000       0.00000000       0.00000000
C        8.45345856       5.36323639     -10.83512057
O        7.54861305       5.41132894     -11.92817630
C        6.21357348       5.24447165     -11.65635319
C        5.42025809       5.29990058     -12.80966199
C        4.03667640       5.14747941     -12.73916086
C        3.42467944       4.93442407     -11.50491135
C        4.18076268       4.87609130     -10.32512953
C        3.44146135       4.62318302      -9.06202433
H        2.41129791       4.29660433      -9.16647184
N        4.07336330       4.78844815      -7.89174220
N        3.26970504       4.35714101      -6.78473758
C        3.72563730       4.22541535      -5.47469858
N        4.88449777       4.78942690      -5.10622054
C        5.31258249       4.61981622      -3.84666830
C        4.58711343       3.87928559      -2.93834776
C        3.39353361       3.33623280      -3.37686874
N        2.95943006       3.50581548      -4.64123070
C        2.52621837       2.50745689      -2.50765903
C        2.45802818       2.69660102      -1.11342086
C        1.64716758       1.89043417      -0.30515745
C        0.88171403       0.88171403      -0.88171403
C        0.91378584       0.67686167      -2.25640217
C        1.72728565       1.48581586      -3.05757648
C        6.61077897       5.25635226      -3.53044378
C        6.93801119       5.70221627      -2.23591957
C        8.17260710       6.30433900      -1.96326447
C        9.10175970       6.47399367      -2.98589025
Br      10.76659984       7.28930510      -2.61618092
C        8.80678838       6.05411534      -4.27749832
C        7.57115612       5.45524602      -4.54265263
C        5.58795429       5.03473489     -10.41657958
O        6.33771739       4.97398406      -9.26429222
H        8.44226334       4.38286254     -10.34841155
H        8.27464452       6.18215610     -10.13126916
H        9.46114587       5.50544851     -11.23915866
H        5.89309333       5.46420948     -13.77380710
H        3.43575477       5.19421040     -13.64163140
H        2.34496342       4.81840359     -11.46006532
H        2.47172805       3.76911929      -6.97322599
H        4.95684814       3.69728181      -1.94008925
H        3.02516509       3.49253495      -0.63664759
H        1.61883637       2.06527736       0.76665623
H        0.31537485      -0.10105965      -2.72185419
H        1.74170857       1.31596938      -4.13491268
H        6.22141475       5.61086267      -1.42385029
H        8.38998242       6.64503297      -0.95505700
H        9.51375331       6.19014229      -5.09087677
H        7.34467796       5.14364048      -5.56501709
H        5.66373539       4.88172516      -8.53972557
C       -6.40319094     -11.37354552      -6.87507906
O       -7.02045534     -12.06687688      -5.80078608
C       -7.09995373     -11.42357907      -4.59086552
C       -7.71676606     -12.20657137      -3.60648323
C       -7.88668964     -11.72810106      -2.30852598
C       -7.43685954     -10.45126458      -1.97589074
C       -6.81771139      -9.63263507      -2.93163705
C       -6.35261151      -8.29752127      -2.47653592
H       -6.33537588      -8.13596175      -1.40303645
N       -5.97085375      -7.39343838      -3.38926152
N       -5.40890702      -6.22295740      -2.77971921
C       -4.75230281      -5.20508387      -3.46836456
N       -4.86976843      -5.11008865      -4.80028814
C       -4.20164948      -4.13841267      -5.43900485
C       -3.40285619      -3.24934796      -4.75254263
C       -3.33570618      -3.39205492      -3.37887405
N       -4.00681138      -4.36617576      -2.73348909
C       -2.50301713      -2.51375196      -2.52456521
C       -2.23828656      -1.17112766      -2.85863584
C       -1.43256412      -0.36151490      -2.04868018
C       -0.88171403      -0.88171403      -0.88171403
C       -1.13438670      -2.19846973      -0.51419325
C       -1.93971551      -3.00178985      -1.32917264
C       -4.36899288      -4.11916378      -6.90941835
C       -4.27653908      -2.93485416      -7.66475378
C       -4.44187586      -2.94299938      -9.05533533
C       -4.70693045      -4.14002529      -9.71468788
Br      -4.93229017      -4.14834084     -11.59145485
C       -4.81445022      -5.32593436      -8.99801747
C       -4.64989463      -5.30981104      -7.60934909
C       -6.65463070     -10.13645752      -4.24818054
O       -6.04374345      -9.34149331      -5.19075691
H       -5.35084345     -11.16025561      -6.66243837
H       -6.96578382     -10.47499172      -7.14729423
H       -6.42282898     -12.03705723      -7.74586683
H       -8.06747151     -13.20278923      -3.86084917
H       -8.36765159     -12.34645596      -1.55748903
H       -7.57545206     -10.08647607      -0.96150420
H       -5.12419922      -6.27665514      -1.81321896
H       -2.82251474      -2.50059088      -5.27111358
H       -2.67467280      -0.72869108      -3.75098375
H       -1.25019035       0.66984535      -2.33711251
H       -0.71829593      -2.61604227       0.39816881
H       -2.13179731      -4.03247069      -1.02832264
H       -4.10061678      -1.98079735      -7.17471358
H       -4.37287649      -2.00999735      -9.60719854
H       -5.03396448      -6.26732322      -9.49348468
H       -4.75229126      -6.24580903      -7.05523523
H       -5.88525708      -8.48155130      -4.71837773
C       -6.93993078       6.34526176      11.36662298
O       -5.86691652       6.93944726      12.08175451
C       -4.64777082       7.01142168      11.45520582
C       -3.66582924       7.60517356      12.25881786
C       -2.35964888       7.76428236      11.79938544
C       -2.01619013       7.32664768      10.52117705
C       -2.96906513       6.73064584       9.68227255
C       -2.50259671       6.27689560       8.34717639
H       -1.42738981       6.24772234       8.19926193
N       -3.40828071       5.91878407       7.42648887
N       -2.79079670       5.36406275       6.25672418
C       -3.47449589       4.72969112       5.22156424
N       -4.80343932       4.86576178       5.11094412
C       -5.43797026       4.21862937       4.12246737
C       -4.75030984       3.42246761       3.23196933
C       -3.37960290       3.33554348       3.39148876
N       -2.73839826       3.98554300       4.38253498
C       -2.52470181       2.50316020       2.51347228
C       -2.84459028       2.26015186       1.16330792
C       -2.03458450       1.45442429       0.35375041
C       -0.88171403       0.88171403       0.88171403
C       -0.52819861       1.11256310       2.20628797
C       -1.34315013       1.91804389       3.00948398
C       -6.90572663       4.40540184       4.08644655
C       -7.64665554       4.33810302       2.89138847
C       -9.03497714       4.52147305       2.88376039
C       -9.70643825       4.77966066       4.07554471
Br     -11.58009158       5.02939270       4.06260158
C       -9.00399447       4.86250739       5.27190019
C       -7.61747141       4.68004629       5.27153706
C       -4.29407154       6.57829466      10.16690256
O       -5.23398144       5.99007510       9.35193713
H       -6.73810980       5.29306413      11.14236350
H       -7.19310689       6.92290304      10.47205985
H       -7.81898651       6.36771608      12.01905045
H       -3.92864419       7.94629644      13.25616928
H       -1.61061436       8.22737814      12.43360407
H       -0.99542183       7.45666924      10.17134125
H       -1.82883216       5.06608441       6.31915676
H       -5.26649551       2.85865378       2.46906992
H       -3.72538068       2.71382725       0.71513970
H       -2.31184660       1.28914884      -0.68353794
H        0.37318911       0.67923893       2.63011957
H       -1.05333839       2.09287226       4.04637999
H       -7.14650295       4.16811138       1.94151338
H       -9.57544868       4.47172594       1.94289777
H       -9.50884553       5.07631789       6.20960895
H       -7.07435809       4.76311700       6.21586044
H       -4.75249154       5.83653356       8.49616102
C       10.45754755      -9.03700275       5.15726522
O       11.63524340      -8.26155127       4.99132363
C       11.48330512      -6.92822064       4.70287256
C       12.71005435      -6.26907789       4.55068842
C       12.76366079      -4.90909630       4.25055959
C       11.58181798      -4.18612647       4.09607041
C       10.33235703      -4.80576811       4.24385837
C        9.13041384      -3.95775654       4.03849831
H        9.30131588      -2.98457862       3.58847957
N        7.92827104      -4.43302437       4.39225824
N        6.86695194      -3.55719938       3.98743231
C        5.51092947      -3.87289064       4.04193113
N        5.09287715      -4.91925745       4.76801061
C        3.78529355      -5.21698941       4.77678404
C        2.87739543      -4.47234871       4.05500264
C        3.37057532      -3.39746748       3.33859235
N        4.68352089      -3.09433410       3.32862125
C        2.50575090      -2.52602295       2.50956045
C        1.15607650      -2.28156387       2.83040970
C        0.34831427      -1.47052052       2.02392442
C        0.88171403      -0.88171403       0.88171403
C        2.21395636      -1.08985727       0.54323605
C        3.01475945      -1.90242339       1.35349515
C        3.41294393      -6.39961986       5.58501123
C        2.15072102      -6.53119379       6.19423221
C        1.82399827      -7.65939212       6.95682019
C        2.75954959      -8.67627680       7.12581723
Br       2.31733410     -10.19706950       8.15768226
C        4.01855522      -8.57361863       6.54622821
C        4.33833807      -7.44321632       5.78750038
C       10.29776193      -6.19082458       4.55068225
O        9.07584376      -6.80757805       4.69257187
H        9.86664559      -9.07042084       4.23647100
H        9.87276411      -8.69739703       6.01790862
H       10.77062447     -10.06426232       5.37086625
H       13.63355278      -6.82887693       4.66868021
H       13.72196244      -4.41259344       4.13704068
H       11.63403558      -3.12568182       3.86371493
H        7.06773224      -2.84957824       3.29676285
H        1.83258929      -4.74325097       4.01837895
H        0.71735324      -2.70727302       3.72972137
H       -0.68835524      -1.30341270       2.30240004
H        2.64670620      -0.63012649      -0.34066330
H        4.05886573      -2.05590242       1.07782249
H        1.41054973      -5.74027645       6.10530153
H        0.84401294      -7.72548600       7.42057344
H        4.76605651      -9.35062685       6.67808901
H        5.33653357      -7.36677351       5.35002844
H        8.41772568      -6.06877789       4.59868255
