169
Properties=species:S:1:pos:R:3 pbc="F F F"
C        0.00000000       0.00000000       0.00000000
C        1.69090530       5.55570064      -4.06232236
C        2.74973793       5.63877509      -3.24478021
C        3.73680825       4.54228253      -2.94386032
O        3.28140645       3.24987271      -3.35438285
C        2.49957304       2.51759004      -2.49859890
C        1.98867840       2.99217760      -1.28374560
C        1.18932731       2.17627944      -0.47527112
C        0.88147417       0.88147417      -0.88147417
C        1.37227161       0.39104082      -2.08508169
C        2.18308393       1.20576074      -2.89154983
C        2.71643897       0.64465278      -4.15519477
N        2.51440015      -0.59544090      -4.46147059
N        3.06928112      -1.03302856      -5.62337974
C        2.94386557      -2.36511583      -5.97995910
O        2.33005980      -3.19932202      -5.31568378
C        3.59348275      -2.79619804      -7.26201573
C        3.29061676      -4.10366920      -7.69225201
C        3.83875923      -4.60780350      -8.86668100
C        4.70542334      -3.83133870      -9.62378593
C        5.01575873      -2.53250250      -9.21065157
C        4.45448766      -1.99485324      -8.04089912
O        4.73117979      -0.72307636      -7.60040910
C        5.26446282       0.19257767      -8.55445253
H        1.03354025       6.40691993      -4.21225441
H        1.45886204       4.64623708      -4.60850982
H        2.93662121       6.58402827      -2.73843469
H        4.03972900       4.54904078      -1.89013428
H        4.64949382       4.75170580      -3.51310447
H        2.18127492       4.00056797      -0.93160060
H        0.80758944       2.56457376       0.46604188
H        1.13064834      -0.62409143      -2.40004528
H        3.29982209       1.31363024      -4.81219886
H        3.63125624      -0.40659431      -6.18999805
H        2.61775383      -4.72541067      -7.10311595
H        5.14821584      -4.22526601     -10.53551984
H        5.71267190      -1.96870837      -9.82360259
H        4.63829947       0.23984579      -9.45170054
H        5.26429146       1.18523876      -8.09519359
H        6.30003156      -0.05772651      -8.80311159
C        3.50882036      -5.94097599      -9.29956835
C        3.23249655      -7.05750795      -9.66211149
Br       2.78570432      -8.86284570     -10.24831310
C       -1.74383218      -3.93373985      -5.63135627
C       -2.09532228      -4.83464156      -4.70332939
C       -3.04868397      -4.61561467      -3.55865246
O       -3.33112267      -3.23360044      -3.32093890
C       -2.49328587      -2.51387317      -2.50860293
C       -1.28507432      -2.99310714      -1.98642014
C       -0.48605597      -2.18382427      -1.17099763
C       -0.88147417      -0.88147417      -0.88147417
C       -2.07303762      -0.38261508      -1.39274143
C       -2.88024149      -1.19784970      -2.20230331
C       -4.16004485      -0.64804577      -2.70819590
N       -4.56585725       0.52241446      -2.33698705
N       -5.76763850       0.93210855      -2.82410235
C       -6.28966637       2.14845196      -2.41749443
O       -5.71888490       2.91725207      -1.64478873
C       -7.62818403       2.54003538      -2.97115179
C       -8.04457630       3.85719147      -2.69181475
C       -9.26919361       4.32621522      -3.15465835
C      -10.10517555       3.49456993      -3.88726495
C       -9.70663153       2.18552667      -4.17280294
C       -8.46365000       1.69910674      -3.73599030
O       -8.03277377       0.42060428      -3.99634305
C       -8.67239813      -0.27508962      -5.06400527
H       -1.04283634      -4.18967015      -6.42020810
H       -2.15099459      -2.92701765      -5.63559670
H       -1.66329948      -5.83188916      -4.76389554
H       -2.70936952      -5.12215834      -2.64737620
H       -3.99957884      -5.09203174      -3.82269351
H       -0.92106603      -3.99319824      -2.19917922
H        0.44571888      -2.57879125      -0.77304894
H       -2.38093934       0.63745750      -1.16312033
H       -4.75606137      -1.27435778      -3.39523203
H       -6.31153518       0.32156981      -3.42469461
H       -7.40085315       4.51712079      -2.11172674
H      -11.07008846       3.85129447      -4.23967568
H      -10.40048270       1.56513672      -4.73222014
H       -8.65847973       0.31507269      -5.98643875
H       -8.10556666      -1.19249552      -5.24666163
H       -9.69149518      -0.56376560      -4.79015585
C       -9.67421972       5.67887876      -2.87207175
C      -10.01342910       6.81173448      -2.63540548
Br     -10.56190197       8.64346636      -2.25273612
C       -1.81451976       5.71236089       3.78204764
C       -2.93072647       5.66066301       3.04190375
C       -3.85181515       4.47900276       2.89213319
O       -3.27399667       3.25547521       3.35619012
C       -2.50098333       2.51742386       2.49735479
C       -2.11234116       2.93442876       1.21783168
C       -1.31238942       2.11793662       0.41055184
C       -0.88147417       0.88147417       0.88147417
C       -1.24972229       0.44926106       2.14941076
C       -2.06112703       1.26363693       2.95563055
C       -2.46228198       0.76264007       4.29136448
N       -2.14763716      -0.43417864       4.66697132
N       -2.58646544      -0.82137129       5.89453815
C       -2.33770221      -2.11126931       6.33227593
O       -1.71096987      -2.94809205       5.68354374
C       -2.86292931      -2.48960441       7.68597554
C       -2.43436507      -3.73722159       8.18205610
C       -2.86066231      -4.18921497       9.42618940
C       -3.72820017      -3.42044678      10.19011717
C       -4.16236577      -2.18066302       9.71220505
C       -3.72518165      -1.69406999       8.46942188
O       -4.12575872      -0.48091114       7.96366496
C       -4.65836619       0.46411480       8.88901203
H       -1.21361276       6.61590979       3.82319204
H       -1.47803347       4.86441514       4.37116033
H       -3.22219229       6.55031286       2.48657902
H       -4.22672397       4.38619252       1.86598756
H       -4.73590047       4.66648323       3.51192040
H       -2.40350481       3.89798384       0.81195484
H       -1.02683665       2.46052783      -0.58124316
H       -0.91186198      -0.52037273       2.51511293
H       -3.04693983       1.43665969       4.94205167
H       -3.15292259      -0.19492581       6.45666320
H       -1.75950704      -4.35298869       7.58894076
H       -4.07612144      -3.77507925      11.15742749
H       -4.85517931      -1.62243489      10.33482170
H       -3.97676923       0.62142027       9.73165630
H       -4.76401749       1.41740456       8.36330177
H       -5.65266138       0.16184362       9.23091163
C       -2.40306655      -5.46032538       9.92467155
C       -2.01983010      -6.52488035      10.34215034
Br      -1.40016918      -8.24617570      11.01717825
C        2.00589024      -3.44102758       5.86201048
C        2.12159047      -4.48377510       5.02792766
C        2.93240823      -4.53050610       3.76003676
O        3.34124200      -3.23635970       3.30806031
C        2.49291048      -2.51174052       2.51111098
C        1.17777942      -2.88321031       2.20361186
C        0.37777580      -2.07602292       1.38707915
C        0.88147417      -0.88147417       0.88147417
C        2.18107422      -0.48975199       1.17756792
C        2.98764797      -1.30458052       1.98816602
C        4.37935505      -0.87516157       2.26176991
N        4.86683038       0.17860078       1.69220024
N        6.16275762       0.47837477       1.97524945
C        6.76525691       1.55757733       1.35102926
O        6.19078490       2.29943685       0.55507352
C        8.20249925       1.82907876       1.68587995
C        8.72994143       3.03659101       1.18584916
C       10.05207836       3.38883409       1.43439246
C       10.87474659       2.54494913       2.16807310
C       10.36665147       1.34376312       2.67101945
C        9.02787718       0.97992262       2.45257899
O        8.48819470      -0.18985253       2.93046531
C        9.17845901      -0.83425686       3.99877715
H        1.39147190      -3.50624904       6.75499365
H        2.52562561      -2.50436277       5.68362055
H        1.58717440      -5.40016273       5.27174704
H        2.41702403      -5.09085275       2.97102728
H        3.84731080      -5.09537731       3.97161598
H        0.73030745      -3.79357393       2.58956210
H       -0.63880714      -2.38691556       1.15801289
H        2.57343477       0.44579131       0.77895872
H        4.98397685      -1.49027322       2.95140112
H        6.70639043      -0.12442300       2.58384655
H        8.09663606       3.70375273       0.60257578
H       11.91334542       2.80841855       2.35354281
H       11.05117346       0.70637103       3.22276368
H        9.35759839      -0.14307854       4.82916887
H        8.53711783      -1.63967890       4.36792709
H       10.11064370      -1.28683668       3.64793625
C       10.57208194       4.63242309       0.92775387
C       11.00758493       5.67392889       0.50344405
Br      11.71175644       7.35795566      -0.18262905
