161
Properties=species:S:1:pos:R:3 pbc="F F F"
C        0.00000000       0.00000000       0.00000000
C        1.69090530       5.55570064      -4.06232236
C        2.74973793       5.63877509      -3.24478021
C        3.73680825       4.54228253      -2.94386032
O        3.28140645       3.24987271      -3.35438285
C        2.49957304       2.51759004      -2.49859890
C        1.98867840       2.99217760      -1.28374560
C        1.18932731       2.17627944      -0.47527112
C        0.88147417       0.88147417      -0.88147417
C        1.37227161       0.39104082      -2.08508169
C        2.18308393       1.20576074      -2.89154983
C        2.71643897       0.64465278      -4.15519477
N        2.51440015      -0.59544090      -4.46147059
N        3.06928112      -1.03302856      -5.62337974
C        2.94386557      -2.36511583      -5.97995910
O        2.33005980      -3.19932202      -5.31568378
C        3.59348275      -2.79619804      -7.26201573
C        3.29061676      -4.10366920      -7.69225201
C        3.83875923      -4.60780350      -8.86668100
Br       3.40563798      -6.35790141      -9.43494598
C        4.70542334      -3.83133870      -9.62378593
C        5.01575873      -2.53250250      -9.21065157
C        4.45448766      -1.99485324      -8.04089912
O        4.73117979      -0.72307636      -7.60040910
C        5.26446282       0.19257767      -8.55445253
H        1.03354025       6.40691993      -4.21225441
H        1.45886204       4.64623708      -4.60850982
H        2.93662121       6.58402827      -2.73843469
H        4.03972900       4.54904078      -1.89013428
H        4.64949382       4.75170580      -3.51310447
H        2.18127492       4.00056797      -0.93160060
H        0.80758944       2.56457376       0.46604188
H        1.13064834      -0.62409143      -2.40004528
H        3.29982209       1.31363024      -4.81219886
H        3.63125624      -0.40659431      -6.18999805
H        2.61775383      -4.72541067      -7.10311595
H        5.14821584      -4.22526601     -10.53551984
H        5.71267190      -1.96870837      -9.82360259
H        4.63829947       0.23984579      -9.45170054
H        5.26429146       1.18523876      -8.09519359
H        6.30003156      -0.05772651      -8.80311159
C       -1.53612711      -5.12506905      -4.64773214
C       -2.42151599      -5.49843614      -3.71334110
C       -3.49044452      -4.63545681      -3.09704977
O       -3.29802643      -3.24026583      -3.34736975
C       -2.49685058      -2.51729201      -2.50161939
C       -1.72881319      -3.06804670      -1.46774170
C       -0.93029608      -2.25384594      -0.65673586
C       -0.88147417      -0.88147417      -0.88147417
C       -1.63028250      -0.31351281      -1.90459881
C       -2.43981691      -1.12875543      -2.71182217
C       -3.25018200      -0.49037844      -3.77572609
N       -3.28021429       0.79680549      -3.89702104
N       -4.07710774       1.29661609      -4.87914065
C       -4.20334778       2.66796849      -5.02332955
O       -3.61246853       3.48966311      -4.32361614
C       -5.11174290       3.16274747      -6.11030501
C       -5.07358491       4.55006414      -6.35567880
C       -5.87544268       5.11770935      -7.33990340
Br      -5.79604656       6.97821176      -7.66484775
C       -6.73670142       4.32348981      -8.08465896
C       -6.78621967       2.94578686      -7.85347498
C       -5.96756637       2.34828696      -6.88125413
O       -5.98355156       0.99869636      -6.62365733
C       -6.53248320       0.15210031      -7.63111012
H       -0.79865799      -5.82501619      -5.02904041
H       -1.52980161      -4.12142055      -5.06238678
H       -2.38531659      -6.52383348      -3.34993411
H       -3.60979301      -4.84218493      -2.02692611
H       -4.44594486      -4.91072381      -3.55763543
H       -1.71486533      -4.13408835      -1.26448982
H       -0.34604971      -2.70300815       0.14293654
H       -1.59116476       0.76197844      -2.07741587
H       -3.83364704      -1.14681996      -4.44518419
H       -4.63069481       0.67240323      -5.45636840
H       -4.40738389       5.18494261      -5.77301782
H       -7.37640377       4.76378938      -8.84585528
H       -7.48808460       2.36683588      -8.44631740
H       -6.06401691       0.33764069      -8.60346957
H       -6.31485563      -0.88175083      -7.34811735
H       -7.61989732       0.25942487      -7.68494419
C       -3.75457628       5.72608251       1.82826951
C       -4.71176036       4.82658990       2.09494297
C       -4.58940535       3.63123591       3.00230984
O       -3.23426391       3.31637588       3.33502222
C       -2.51314196       2.50953835       2.49308166
C       -2.95800742       2.06523209       1.24136209
C       -2.14948274       1.24936173       0.44203340
C       -0.88147417       0.88147417       0.88147417
C       -0.41673251       1.31471283       2.11694878
C       -1.23184429       2.12464725       2.92390297
C       -0.72065504       2.54616611       4.24946538
N        0.41158668       2.10249946       4.68951706
N        0.78578725       2.51537019       5.93004937
C        1.95676251       2.02900482       6.48646653
O        2.71607834       1.24741726       5.91508265
C        2.30945013       2.50298943       7.86576114
C        3.59170469       2.14362906       8.32727521
C        4.02294623       2.52846508       9.59211788
Br       5.75322565       2.05094317      10.18496504
C        3.18665069       3.26108645      10.42343480
C        1.91193115       3.62545196       9.98038698
C        1.46536220       3.26823411       8.69766164
O        0.22150810       3.60748348       8.22253715
C       -0.45485029       4.67687624       8.87976649
H       -3.94159538       6.55676876       1.15435046
H       -2.76893381       5.66470784       2.27996729
H       -5.68387005       4.95330479       1.62190933
H       -5.11983845       2.76093349       2.59813212
H       -5.09766251       3.87442428       3.94221730
H       -3.92931923       2.34089816       0.84322611
H       -2.51767730       0.91265466      -0.52421064
H        0.57639907       1.02380000       2.45920125
H       -1.34281662       3.23443393       4.84840064
H        0.17793484       3.11897540       6.47361941
H        4.25445666       1.56264461       7.68727115
H        3.51308142       3.55266194      11.41888916
H        1.28535035       4.18170005      10.67121642
H        0.17613112       5.57023986       8.93573705
H       -1.33546845       4.92772202       8.28153334
H       -0.80311846       4.37142405       9.87087413
C        5.22148402      -4.53285763       1.55458665
C        5.53687425      -3.61623375       2.48018522
C        4.62166551      -3.06178902       3.53949657
O        3.24190965      -3.34911894       3.29463342
C        2.51742481      -2.50097808       2.49735909
C        3.05831384      -1.42630047       1.77998728
C        2.24372739      -0.61579552       0.98135496
C        0.88147417      -0.88147417       0.88147417
C        0.32364887      -1.94532727       1.57941799
C        1.13881148      -2.75237519       2.38920783
C        0.51003496      -3.86113791       3.14511366
N       -0.77289603      -4.02335861       3.12996725
N       -1.26545413      -5.04567110       3.87941533
C       -2.63472926      -5.23647599       3.95696211
O       -3.45969069      -4.54405905       3.36205321
C       -3.12236268      -6.36696639       4.81469673
C       -4.49921465      -6.65406797       4.72434625
C       -5.05962633      -7.68075523       5.47650784
Br      -6.90534836      -8.06075687       5.32727404
C       -4.26908418      -8.42771505       6.33923969
C       -2.90173397      -8.15545356       6.44018820
C       -2.31058869      -7.13928856       5.67183368
O       -0.97112741      -6.84043831       5.73920163
C       -0.11009218      -7.83816267       6.28342253
H        5.95594986      -4.86828492       0.82847981
H        4.23236548      -4.97814645       1.50309702
H        6.55069119      -3.22009721       2.48829578
H        4.79007509      -1.99013610       3.69869286
H        4.88170688      -3.54405250       4.48854472
H        4.11718904      -1.18960813       1.80664631
H        2.68493023       0.21584067       0.43703175
H       -0.74399226      -2.15020393       1.50039051
H        1.16916729      -4.52823741       3.72824649
H       -0.64055219      -5.62067593       4.43453624
H       -5.13143943      -6.07034793       4.05655060
H       -4.70439678      -9.22242015       6.94044630
H       -2.32616396      -8.75223266       7.14149742
H       -0.24960621      -8.80026851       5.77918350
H        0.92040425      -7.51626522       6.10805435
H       -0.24944024      -7.93023556       7.36462132
