182
Properties=species:S:1:pos:R:3 pbc="F F F"
C        2.60080932       6.46560467      -4.97222638
C        3.65964195       6.54867911      -4.15468424
C        4.64671228       5.45218655      -3.85376434
O        4.19131047       4.15977674      -4.26428687
C        3.40947706       3.42749406      -3.40850292
C        2.89858243       3.90208162      -2.19364962
C        2.09923133       3.08618347      -1.38517515
C        1.79137820       1.79137820      -1.79137820
C        2.28217563       1.30094485      -2.99498571
C        3.09298795       2.11566477      -3.80145386
C        3.62634300       1.55455680      -5.06509880
N        3.42430417       0.31446313      -5.37137461
N        3.97918514      -0.12312453      -6.53328377
C        3.85376959      -1.45521180      -6.88986312
O        3.23996383      -2.28941800      -6.22558780
C        4.50338677      -1.88629402      -8.17191976
C        4.20052078      -3.19376517      -8.60215603
C        4.74866326      -3.69789948      -9.77658503
Br       4.31554201      -5.44799738     -10.34485000
C        5.61532736      -2.92143468     -10.53368995
C        5.92566276      -1.62259848     -10.12055559
C        5.36439169      -1.08494921      -8.95080315
O        5.64108381       0.18682767      -8.51031313
C        6.17436684       1.10248170      -9.46435656
H        1.94344428       7.31682395      -5.12215843
H        2.36876606       5.55614110      -5.51841385
H        3.84652523       7.49393230      -3.64833872
H        4.94963302       5.45894480      -2.80003831
H        5.55939785       5.66160983      -4.42300850
H        3.09117894       4.91047200      -1.84150463
H        1.71749346       3.47447779      -0.44386214
H        2.04055236       0.28581259      -3.30994930
H        4.20972611       2.22353426      -5.72210289
H        4.54116027       0.50330971      -7.09990207
H        3.52765785      -3.81550665      -8.01301998
H        6.05811986      -3.31536198     -11.44542386
H        6.62257593      -1.05880435     -10.73350661
H        5.54820349       1.14974981     -10.36160456
H        6.17419549       2.09514279      -9.00509761
H        7.20993558       0.85217752      -9.71301561
C       -5.76541046      -2.42954675      -5.84368316
C       -4.80620862      -3.23344596      -6.32335072
C       -4.07810955      -4.31062273      -5.56393089
O       -4.25358071      -4.21425426      -4.14753911
C       -3.41275232      -3.40587133      -3.42685040
C       -2.46017217      -2.54590154      -3.98823996
C       -1.64825446      -1.74752404      -3.17481145
C       -1.79137820      -1.79137820      -1.79137820
C       -2.73329877      -2.63251930      -1.21228812
C       -3.54087809      -3.44158508      -2.02764340
C       -4.51560883      -4.35059545      -1.37979432
N       -4.55631535      -4.46183132      -0.09199525
N       -5.45876650      -5.34447633       0.41389845
C       -5.51163272      -5.55781064       1.78102245
O       -4.79823619      -4.97355407       2.59565662
C       -6.51247504      -6.55766646       2.28112899
C       -6.67463870      -6.61426279       3.67998984
C       -7.57476870      -7.50587841       4.25329830
Br      -7.78975683      -7.55340335       6.13076555
C       -8.31584818      -8.36388751       3.45215305
C       -8.16658629      -8.32002833       2.06299475
C       -7.28120167      -7.41069320       1.46164925
O       -7.10583228      -7.33342355       0.10103122
C       -8.12981382      -7.89320273      -0.71818855
H       -6.23038254      -1.67770837      -6.47433575
H       -6.11781229      -2.50614688      -4.81936184
H       -4.50864182      -3.11634423      -7.36381020
H       -3.01748769      -4.35246983      -5.83865860
H       -4.49898145      -5.27502714      -5.87000758
H       -2.32339700      -2.45839864      -5.06135992
H       -0.91231198      -1.09080577      -3.63271564
H       -2.84221749      -2.66583098      -0.12826579
H       -5.18921195      -4.93510996      -2.03104134
H       -6.04021499      -5.89544826      -0.20870880
H       -6.09359307      -5.95135377       4.31977567
H       -9.01080516      -9.07301344       3.89563684
H       -8.75232149      -9.02230813       1.47735143
H       -9.11435430      -7.49628959      -0.44891397
H       -7.92331265      -7.59972474      -1.75139849
H       -8.11447306      -8.98624187      -0.67441378
C       -6.11166751       2.46009711       5.46687575
C       -5.13626078       3.09811710       6.12862742
C       -4.22202096       4.15764432       5.57299790
O       -4.24560935       4.22543432       4.14433041
C       -3.41503701       3.40452460       3.42591243
C       -2.62369197       2.39034238       3.98027932
C       -1.81023436       1.59196155       3.16839403
C       -1.79137820       1.79137820       1.79137820
C       -2.57209659       2.78753816       1.21847144
C       -3.38040179       3.59580023       2.03390456
C       -4.17893857       4.66969932       1.39736071
N       -4.06280689       4.91450587       0.13282915
N       -4.80856092       5.93983936      -0.35905590
C       -4.68518224       6.29496127      -1.69172260
O       -3.94731460       5.71945612      -2.49063708
C       -5.51698858       7.44665584      -2.17463191
C       -5.51392538       7.66237381      -3.56738754
C       -6.24888091       8.70313219      -4.12466429
Br      -6.24501844       8.96424903      -5.99687284
C       -6.98490102       9.55371699      -3.31103538
C       -6.99833546       9.35302459      -1.92774018
C       -6.28290705       8.29357657      -1.34623799
O       -6.27069857       8.05980400       0.00772204
C       -7.31856239       8.64564871       0.77699399
H       -6.71839501       1.70553125       5.95850040
H       -6.33683058       2.67913908       4.42735135
H       -4.97121586       2.84358726       7.17399313
H       -3.20035474       4.05170184       5.95655954
H       -4.57497643       5.12739293       5.94164681
H       -2.61827082       2.17988524       5.04499951
H       -1.20080770       0.81356703       3.62145866
H       -2.55423566       2.94239278       0.13968582
H       -4.85903417       5.25750259       2.03882651
H       -5.39773026       6.48699935       0.25964245
H       -4.93454139       7.00635063      -4.21572084
H       -7.55013853      10.37783766      -3.73979444
H       -7.57227133      10.05396973      -1.32896287
H       -8.30155552       8.39149473       0.36650761
H       -7.26055726       8.22777165       1.78610697
H       -7.18790018       9.72878263       0.85844590
C        2.61393757      -4.93882010       6.48588271
C        3.01005444      -5.80763200       5.54531886
C        3.98512996      -5.53723423       4.43029898
O        4.23885271      -4.14331035       4.23321102
C        3.40332992      -3.42414500       3.41799912
C        2.22038753      -3.91939207       2.85453407
C        1.42151171      -3.10970820       2.03937003
C        1.79137820      -1.79137820       1.79137820
C        2.95745974      -1.27665008       2.34399637
C        3.76480584      -2.09193841       3.15336233
C        5.01793988      -1.52402555       3.70403317
N        5.40344640      -0.33522679       3.37146872
N        6.58253775       0.09123691       3.89804353
C        7.08390831       1.32958461       3.53409721
O        6.51310232       2.10327764       2.76630895
C        8.39849172       1.73960860       4.13012939
C        8.78870544       3.07299084       3.89319704
C        9.98973433       3.55990405       4.39751852
Br      10.48601491       5.35660553       4.08298524
C       10.82811236       2.73082206       5.13029233
C       10.45538460       1.40582615       5.37406141
C        9.23580387       0.90043632       4.89487808
O        8.83061526      -0.39419513       5.11341422
C        9.46126435      -1.10047977       6.17946098
H        1.90061010      -5.23115478       7.25066179
H        2.99576417      -3.92294733       6.52460951
H        2.60157762      -6.81624656       5.57097206
H        3.68066364      -6.02907224       3.49888025
H        4.94088312      -5.99688809       4.70624495
H        1.87626882      -4.93297875       3.03390800
H        0.50973919      -3.51712738       1.60896681
H        3.24541808      -0.24403430       2.14686188
H        5.61250390      -2.15257856       4.39028080
H        7.12671543      -0.52066900       4.49698762
H        8.14303880       3.73133090       3.31346327
H       11.77505516       3.10195471       5.51508130
H       11.15066833       0.78872883       5.93533869
H        9.41036456      -0.53390558       7.11528773
H        8.91312118      -2.03559614       6.32571857
H       10.49354628      -1.35750247       5.92407996
C       -0.00445707       0.01189536      -1.78238275
H       -0.66409135       0.67374010      -2.43557963
H        0.65740317      -0.63156657      -2.45157240
C       -0.90989263      -0.90692880      -0.91072765
C        0.90977584       0.90977584      -0.90977584
C       -0.00465871       1.77757030       0.00794375
H       -0.66225468       2.44313916      -0.64384735
H        0.64322798       2.43503045       0.67728295
C       -1.78241447       0.00034974      -0.00472694
H       -2.45427497      -0.65498947       0.64260836
H       -2.43311707       0.67328779      -0.65473579
C       -0.91132561       0.90220522       0.91563759
C       -0.01476271      -0.02253852       1.78660255
H       -0.67934791      -0.69751639       2.42135241
H        0.63392994       0.61504881       2.47327442
C        0.01484550      -1.77751727      -0.01636693
H        0.67870853      -2.42144646      -0.68295456
H       -0.62264859      -2.45592969       0.64226336
C        1.78714474       0.01002794       0.00389507
H        2.44202412       0.67113390       0.66197326
H        2.45385902      -0.65136977      -0.64189061
C        0.91606151      -0.90478549       0.90901405
