141
Properties=species:S:1:pos:R:3 pbc="F F F"
C        0.00000000       0.00000000       0.00000000
C        0.88222620       0.88222620      -0.88222620
C        0.32952980       1.51717360      -1.99370280
C        1.13481064       2.32088484      -2.80049449
C        2.48713941       2.48664003      -2.49313385
C        3.04009313       1.85179254      -1.37484163
C        2.23197519       1.04430358      -0.56782515
C        4.45733725       2.02624524      -1.05896292
C        5.42172478       1.24563518      -1.56516333
C        5.31499563       0.07011187      -2.48456782
C        6.60564826      -0.71137912      -2.25982701
C        7.60641499       0.30572138      -1.79257952
C        8.93554328       0.17690916      -1.91320368
C        9.94063918       1.15880401      -1.50610390
C       10.52233020       1.08560488      -0.23550011
C       11.52094168       1.98940919       0.13499687
C       11.94232937       2.97050644      -0.76239942
C       11.35571502       3.04759090      -2.02470143
Br      11.93092438       4.37398227      -3.24426092
C       10.35736305       2.14903223      -2.40179740
C        6.85359911       1.45634257      -1.22054523
O        7.29960161       2.38686958      -0.57662004
H       -0.72277090       1.39498744      -2.23707383
H        0.70918097       2.82147635      -3.66674966
H        3.10478443       3.11901763      -3.12760902
H        2.65374139       0.54774407       0.30243602
H        4.69864722       2.84668678      -0.38583615
H        5.25939495       0.41820205      -3.52294998
H        4.44236303      -0.55824334      -2.28148115
H        6.45949168      -1.46611036      -1.47736257
H        6.91896267      -1.22185988      -3.17646031
H        9.35177182      -0.72362040      -2.35944658
H       10.20041792       0.32728925       0.47421842
H       11.96802911       1.92892457       1.12385154
H       12.72121891       3.66874128      -0.46827629
H        9.90799658       2.21611592      -3.38863751
C       -0.88222620      -0.88222620      -0.88222620
C       -2.21352982      -1.09820021      -0.52867616
C       -3.01867025      -1.90505865      -1.33246107
C       -2.49058629      -2.49149547      -2.48483152
C       -1.15495105      -2.27088706      -2.84088919
C       -0.34797026      -1.46333006      -2.03280358
C       -0.60598447      -2.88958730      -4.04697363
C       -0.06046354      -4.11347716      -4.05858259
C        0.14356448      -5.07912974      -2.93411006
C        1.26096844      -5.99898599      -3.41607860
C        1.17839770      -5.96817527      -4.91493832
C        1.63365816      -6.93695480      -5.72235947
C        1.53904648      -6.96262624      -7.18196733
C        2.58808486      -6.46714048      -7.96437957
C        2.52272591      -6.54023694      -9.35784297
C        1.40866766      -7.10839318      -9.97550971
C        0.36053469      -7.59366736      -9.19487469
Br      -1.14778710      -8.36970000     -10.03168047
C        0.41813436      -7.52360509      -7.80272194
C        0.48622080      -4.70930724      -5.30740046
O        0.39172464      -4.23245999      -6.42235587
H       -2.63186292      -0.64254982       0.36512237
H       -4.05855486      -2.07472581      -1.06412632
H       -3.12918709      -3.11600995      -3.10621404
H        0.69034910      -1.28707653      -2.30232200
H       -0.67304784      -2.29928339      -4.95883891
H       -0.77577682      -5.65410262      -2.77066753
H        0.42145881      -4.59335217      -1.99370748
H        2.23546135      -5.61024625      -3.09595900
H        1.14144270      -7.00773090      -3.00727491
H        2.11884478      -7.81165821      -5.29478456
H        3.46062219      -6.01914497      -7.49496598
H        3.33973818      -6.15223395      -9.96060638
H        1.36563667      -7.16403822     -11.05983493
H       -0.40297221      -7.90656417      -7.20321363
C       -0.88222620       0.88222620       0.88222620
C       -0.35899305       1.42744811       2.05396503
C       -1.16443802       2.23108543       2.86066652
C       -2.48749340       2.48633044       2.49308945
C       -3.01060492       1.94157586       1.31454652
C       -2.20251463       1.13402795       0.50756133
C       -4.39747332       2.20948846       0.93558363
C       -5.42732044       1.45762017       1.34758267
C       -5.43220597       0.23190100       2.20556836
C       -6.74742932      -0.46506486       1.87173169
C       -7.66700211       0.62815503       1.40955875
C       -9.00563051       0.56619629       1.45382932
C       -9.93463871       1.62142706       1.04948133
C      -10.44892910       1.64619670      -0.25169061
C      -11.37752628       2.62130533      -0.62347761
C      -11.79592683       3.57611159       0.30319681
C      -11.27607118       3.55537748       1.59655870
Br     -11.84757267       4.84619842       2.85539648
C      -10.34782177       2.58517138       1.97519953
C       -6.82532341       1.76397606       0.94118743
O       -7.18653374       2.74967266       0.32688482
H        0.67065143       1.23538904       2.34455276
H       -0.76145931       2.66201159       3.77393608
H       -3.10529518       3.11779288       3.12832302
H       -2.60121243       0.70711870      -0.40928170
H       -4.55868743       3.07572507       0.29675765
H       -5.41553556       0.52208176       3.26292967
H       -4.58354456      -0.43188833       2.01394462
H       -6.59802178      -1.18504906       1.05777117
H       -7.13650572      -1.00450202       2.74155941
H       -9.49181998      -0.33214070       1.82791871
H      -10.12843383       0.90924465      -0.98418973
H      -11.77235726       2.63676805      -1.63602317
H      -12.52027353       4.33024791       0.00771504
H       -9.95026560       2.57626871       2.98621570
C        0.88222620      -0.88222620       0.88222620
C        1.97110417      -1.54818984       0.32111218
C        2.77547061      -2.35522970       1.12548966
C        2.48871371      -2.49270659       2.48549298
C        1.39755743      -1.82061548       3.04855438
C        0.59038333      -1.01334285       2.24037773
C        1.09981782      -1.97017256       4.47255502
C        0.32441543      -2.94854101       4.95956685
C       -0.40585649      -4.03717109       4.23836072
C       -1.50974318      -4.46229318       5.20154616
C       -0.99075111      -4.12579630       6.56967070
C       -1.39453184      -4.71672106       7.70346690
C       -0.88823313      -4.44499171       9.04878852
C       -1.52791326      -3.50586035       9.86548810
C       -1.07855521      -3.28442730      11.16948192
C        0.01218292      -4.00016610      11.66288622
C        0.65379678      -4.92913470      10.84507588
Br       2.12919780      -5.90438784      11.51558194
C        0.21137116      -5.15535575       9.54146576
C        0.04627386      -3.06801046       6.41620258
O        0.56360988      -2.40472581       7.29475554
H        2.20183315      -1.44335470      -0.73589747
H        3.62805365      -2.87458599       0.69476735
H        3.12543214      -3.12200536       3.10397358
H       -0.25894080      -0.48804760       2.66994264
H        1.55774877      -1.23825622       5.13516515
H        0.27525056      -4.87561540       4.04968101
H       -0.83014040      -3.71240541       3.28333584
H       -2.42385608      -3.88824725       5.00635272
H       -1.74049795      -5.52658344       5.08747762
H       -2.16401808      -5.48475949       7.66685658
H       -2.37735273      -2.93930939       9.49153210
H       -1.57819958      -2.55250969      11.79879204
H        0.35483727      -3.82443445      12.67896476
H        0.71688897      -5.88304628       8.91281475
