149
Properties=species:S:1:pos:R:3 pbc="F F F"
C        0.00000000       0.00000000       0.00000000
C        0.88222620       0.88222620      -0.88222620
C        0.32952980       1.51717360      -1.99370280
C        1.13481064       2.32088484      -2.80049449
C        2.48713941       2.48664003      -2.49313385
C        3.04009313       1.85179254      -1.37484163
C        2.23197519       1.04430358      -0.56782515
C        4.45733725       2.02624524      -1.05896292
C        5.42172478       1.24563518      -1.56516333
C        5.31499563       0.07011187      -2.48456782
C        6.60564826      -0.71137912      -2.25982701
C        7.60641499       0.30572138      -1.79257952
C        8.93554328       0.17690916      -1.91320368
C        9.94063918       1.15880401      -1.50610390
C       10.52233020       1.08560488      -0.23550011
C       11.52094168       1.98940919       0.13499687
C       11.94232937       2.97050644      -0.76239942
C       11.35571502       3.04759090      -2.02470143
C       10.35736305       2.14903223      -2.40179740
C        6.85359911       1.45634257      -1.22054523
O        7.29960161       2.38686958      -0.57662004
H       -0.72277090       1.39498744      -2.23707383
H        0.70918097       2.82147635      -3.66674966
H        3.10478443       3.11901763      -3.12760902
H        2.65374139       0.54774407       0.30243602
H        4.69864722       2.84668678      -0.38583615
H        5.25939495       0.41820205      -3.52294998
H        4.44236303      -0.55824334      -2.28148115
H        6.45949168      -1.46611036      -1.47736257
H        6.91896267      -1.22185988      -3.17646031
H        9.35177182      -0.72362040      -2.35944658
H       10.20041792       0.32728925       0.47421842
H       11.96802911       1.92892457       1.12385154
H       12.72121891       3.66874128      -0.46827629
H        9.90799658       2.21611592      -3.38863751
C       11.79363857       4.05741107      -2.95318740
C       12.16039954       4.90313547      -3.73079440
Br      12.75342100       6.27060028      -4.98811915
C       -0.88222620      -0.88222620      -0.88222620
C       -2.24083397      -0.59411170      -1.00546053
C       -3.04696826      -1.40027844      -1.80894327
C       -2.49243309      -2.48925744      -2.48522275
C       -1.12758790      -2.77531223      -2.36382718
C       -0.32068266      -1.96740771      -1.55601353
C       -0.55236034      -3.91846116      -3.07172391
C       -0.51829626      -5.15579794      -2.55842910
C       -0.99028390      -5.65142537      -1.22796605
C       -0.21059236      -6.94273590      -1.00076789
C        0.12032916      -7.45064404      -2.37440101
C        0.37747683      -8.73285082      -2.67028213
C        0.66639317      -9.27331766      -3.99862261
C        1.98993875      -9.39786185      -4.43551209
C        2.26994005      -9.96365491      -5.68163914
C        1.22859068     -10.40707175      -6.49675417
C       -0.08988777     -10.27433106      -6.06378853
C       -0.37758330      -9.70969276      -4.82091662
C        0.07460256      -6.29386088      -3.31122858
O        0.45999552      -6.25874182      -4.46434493
H       -2.67842942       0.25352382      -0.48438478
H       -4.10648891      -1.17900229      -1.91191579
H       -3.13031392      -3.10891453      -3.11218263
H        0.74020195      -2.18284756      -1.45640382
H       -0.15362509      -3.71402044      -4.06352463
H       -2.06556416      -5.86169710      -1.27328571
H       -0.80885007      -4.94219443      -0.41455634
H        0.71780601      -6.73308382      -0.45546608
H       -0.79909564      -7.65785660      -0.41661087
H        0.37241438      -9.48017840      -1.87983398
H        2.81041116      -9.05322405      -3.81067586
H        3.29979843     -10.05632366      -6.01657692
H        1.45390468     -10.84829694      -7.46384421
H       -1.40836013      -9.61266804      -4.49172184
C       -1.16508772     -10.73615851      -6.90299082
C       -2.06556768     -11.12293899      -7.60582273
Br      -3.52156761     -11.74833033      -8.74224250
C       -0.88222620       0.88222620       0.88222620
C       -1.93235517       0.30945953       1.59859149
C       -2.73921886       1.11458798       2.40238313
C       -2.49314325       2.48682504       2.48694500
C       -1.43622357       3.06018212       1.77032162
C       -0.62917405       2.25204294       0.96288692
C       -1.18452073       4.49802699       1.85999768
C       -1.77599166       5.39608685       1.06044477
C       -2.74442255       5.18571696      -0.06046420
C       -2.62331773       6.44444592      -0.91366749
C       -2.15887854       7.51683165       0.02900570
C       -2.35276853       8.83036021      -0.15747262
C       -1.95024679       9.90238010       0.75292021
C       -0.71576070      10.54020881       0.58746568
C       -0.35318924      11.60003808       1.42212668
C       -1.22242893      12.02683306       2.42597323
C       -2.44819673      11.38469029       2.59512033
C       -2.81711121      10.32506749       1.76601398
C       -1.49461289       6.85174908       1.18412494
O       -0.82999252       7.37486249       2.05823621
H       -2.12769995      -0.75819090       1.53978133
H       -3.55764480       0.67359390       2.96616828
H       -3.12686675       3.10440499       3.12013934
H        0.19363827       2.68958050       0.40310720
H       -0.48570672       4.81277919       2.63268423
H       -3.76065797       5.09781752       0.34207149
H       -2.52791614       4.29317521      -0.65549050
H       -1.87175895       6.29813597      -1.69915103
H       -3.57819866       6.68692338      -1.39155893
H       -2.86243530       9.17841855      -1.05325585
H       -0.02803659      10.21488408      -0.18943191
H        0.60767163      12.09065053       1.29012325
H       -0.93482356      12.85337904       3.07003389
H       -3.77552876       9.83261311       1.90460814
C       -3.34790276      11.82793686       3.62839743
C       -4.10140655      12.19915586       4.49376699
Br      -5.31975846      12.79938558       5.89299639
C        0.88222620      -0.88222620       0.88222620
C        1.99413069      -1.51657378       0.32970172
C        2.79854840      -2.32361288       1.13402869
C        2.48885144      -2.49264312       2.48541872
C        1.37451470      -1.85225084       3.03996176
C        0.56735763      -1.04495894       2.23178734
C        1.05286266      -2.03479659       4.45488615
C        0.28738049      -3.03683419       4.90830860
C       -0.40804044      -4.12497699       4.15273877
C       -1.52153520      -4.58934339       5.08628796
C       -1.03505596      -4.26950750       6.47026435
C       -1.44873000      -4.88967576       7.58471036
C       -0.97326168      -4.63438456       8.94442421
C       -1.64621971      -3.72340419       9.76625072
C       -1.22592219      -3.51867089      11.08260530
C       -0.13112044      -4.22304471      11.58331097
C        0.54359593      -5.12380811      10.76060332
C        0.13031325      -5.33320410       9.44467533
C       -0.01587646      -3.18956142       6.35680194
O        0.47190352      -2.53366145       7.25752626
H        2.24272485      -1.38706584      -0.72050031
H        3.66895787      -2.81838088       0.71006823
H        3.12577153      -3.12159343       3.10404612
H       -0.29988661      -0.54417029       2.65476575
H        1.48401703      -1.30725422       5.13989890
H        0.29252699      -4.94661665       3.96140333
H       -0.82038208      -3.78995589       3.19602703
H       -2.44268116      -4.02901624       4.88440882
H       -1.72955867      -5.65540917       4.94771261
H       -2.20245638      -5.67126598       7.51878839
H       -2.49919451      -3.16590553       9.38677773
H       -1.75136566      -2.80857536      11.71589245
H        0.18883111      -4.06046820      12.60893717
H        0.66153420      -6.03897581       8.81224000
C        1.67110580      -5.85463610      11.27849514
C        2.61539532      -6.46670455      11.71222954
Br       4.14223160      -7.45636745      12.41354138
