162
Properties=species:S:1:pos:R:3 pbc="F F F"
C        1.79213023       1.79213023      -1.79213023
C        1.23943382       2.42707763      -2.90360682
C        2.04471466       3.23078886      -3.71039852
C        3.39704343       3.39654406      -3.40303787
C        3.94999715       2.76169657      -2.28474566
C        3.14187921       1.95420760      -1.47772917
C        5.36724127       2.93614926      -1.96886694
C        6.33162880       2.15553921      -2.47506735
C        6.22489966       0.98001589      -3.39447185
C        7.51555229       0.19852491      -3.16973103
C        8.51631902       1.21562540      -2.70248354
C        9.84544730       1.08681318      -2.82310770
C       10.85054320       2.06870803      -2.41600793
C       11.43223423       1.99550891      -1.14540413
C       12.43084570       2.89931322      -0.77490715
C       12.85223339       3.88041046      -1.67230345
C       12.26561905       3.95749493      -2.93460546
Br      12.84082840       5.28388629      -4.15416495
C       11.26726707       3.05893625      -3.31170142
C        7.76350313       2.36624660      -2.13044925
O        8.20950563       3.29677360      -1.48652407
H        0.18713312       2.30489147      -3.14697786
H        1.61908500       3.73138037      -4.57665369
H        4.01468845       4.02892166      -4.03751304
H        3.56364541       1.45764809      -0.60746800
H        5.60855124       3.75659080      -1.29574017
H        6.16929897       1.32810608      -4.43285400
H        5.35226706       0.35166068      -3.19138518
H        7.36939571      -0.55620634      -2.38726660
H        7.82886670      -0.31195585      -4.08636434
H       10.26167584       0.18628362      -3.26935060
H       11.11032195       1.23719328      -0.43568560
H       12.87793314       2.83882860       0.21394751
H       13.63112293       4.57864530      -1.37818032
H       10.81790060       3.12601994      -4.29854154
C       -1.79213023      -1.79213023      -1.79213023
C       -1.40043232      -3.10146542      -2.06822053
C       -2.20428098      -3.90649703      -2.87512404
C       -3.39477562      -3.40025085      -3.40159889
C       -3.78896160      -2.08684154      -3.12063623
C       -2.98085659      -1.27984093      -2.31311846
C       -5.03499518      -1.56055418      -3.67670812
C       -5.10978909      -0.97349137      -4.87895491
C       -4.02870889      -0.69547027      -5.87520823
C       -4.58222044       0.43517771      -6.73676549
C       -6.07520219       0.29751913      -6.65674491
C       -6.93244942       0.75681168      -7.57973045
C       -8.38784853       0.61051277      -7.55792341
C       -9.18794029       1.61271369      -6.99792067
C      -10.58000996       1.49967149      -7.02472760
C      -11.17859156       0.38451330      -7.61086905
C      -10.37993763      -0.61720335      -8.16057845
Br     -11.19114914      -2.12679693      -8.96093358
C       -8.98901613      -0.51185225      -8.13703637
C       -6.39759697      -0.45182327      -5.41077874
O       -7.49063776      -0.60307371      -4.89909182
H       -0.47673049      -3.50287761      -1.65939434
H       -1.90617397      -4.92947076      -3.09147433
H       -4.01567123      -4.03872082      -4.02673110
H       -3.27985341      -0.25870273      -2.09020537
H       -5.92206113      -1.68102714      -3.05779395
H       -3.85419655      -1.58771633      -6.48834616
H       -3.08163503      -0.40089925      -5.41277864
H       -4.28242584       1.40645510      -6.32448523
H       -4.20618870       0.36571414      -7.76280062
H       -6.55390247       1.28730556      -8.45071316
H       -8.73334748       2.48548953      -6.53534288
H      -11.19647471       2.28037044      -6.58670995
H      -12.26206044       0.30432463      -7.63021274
H       -8.37547759      -1.29693363      -8.57005086
C       -1.79213023       1.79213023       1.79213023
C       -2.97091521       2.32608327       1.27311978
C       -3.77549895       3.13310748       2.07729560
C       -3.39918638       3.40232311       3.39511587
C       -2.21749039       2.86261121       3.91633778
C       -1.41038384       2.05525738       3.10817476
C       -1.82642318       3.14988213       5.29595216
C       -1.09892757       4.22039837       5.64290942
C       -0.51638277       5.29850786       4.78449677
C        0.61860978       5.88282408       5.61959393
C        0.23344711       5.62090704       7.04696804
C        0.67200397       6.33113025       8.09624191
C        0.29245206       6.13267632       9.49503492
C        1.06638067       5.31422999      10.32529795
C        0.73619685       5.16668240      11.67458052
C       -0.36898443       5.83600411      12.19995876
C       -1.14408934       6.64411416      11.36951593
Br      -2.63937288       7.55678932      12.08271744
C       -0.82115676       6.79592869      10.02081930
C       -0.72242135       4.47895300       7.05882464
O       -1.11618952       3.85245020       8.02416357
H       -3.27136348       2.11825432       0.24938464
H       -4.69765772       3.54981722       1.67964412
H       -4.03667460       4.03017972       4.01426883
H       -0.49106650       1.63230528       3.50538973
H       -2.17183685       2.44203230       6.04701307
H       -1.27591194       6.06500913       4.58933798
H       -0.14023829       4.92982103       3.82525359
H        1.55918398       5.36533210       5.39430784
H        0.75249568       6.94861793       5.40715293
H        1.37129902       7.14944827       7.93916082
H        1.92859107       4.78472414       9.92706776
H        1.33991960       4.52831815      12.31441567
H       -0.61856371       5.71842873      13.25095612
H       -1.43032200       7.42970293       9.38243715
C        1.79213023      -1.79213023       1.79213023
C        3.01127712      -1.30121062       2.25763053
C        3.81788937      -2.10679823       3.06121444
C        3.40292558      -3.39771825       3.39598153
C        2.17701740      -3.88816963       2.93125234
C        1.37005573      -3.08010745       2.12365280
C        1.74838543      -5.24163992       3.28223213
C        2.07649380      -6.32327006       2.56247150
C        2.87373580      -6.42515309       1.30049851
C        2.44723920      -7.75334498       0.68322405
C        1.99639881      -8.59888273       1.83914642
C        1.97649405      -9.93952756       1.83934659
C        1.58110374     -10.79898097       2.95517445
C        0.26048563     -11.24876234       3.06389929
C       -0.10622951     -12.11302139       4.09827419
C        0.84499571     -12.53125022       5.02870137
C        2.15826802     -12.07535788       4.92409354
Br       3.45001581     -12.64690381       6.18196002
C        2.53204066     -11.21154994       3.89431416
C        1.62182045      -7.68478299       2.95359554
O        1.03953077      -7.97081108       3.98246144
H        3.33904767      -0.29649107       2.00346370
H        4.76817439      -1.72872188       3.43022279
H        4.03877457      -4.01573036       4.02661822
H        0.41659270      -3.45355790       1.75861090
H        1.14504139      -5.33239017       4.18345066
H        3.94342678      -6.44585885       1.54097342
H        2.68951867      -5.59948634       0.60630791
H        1.60743513      -7.59819228      -0.00517144
H        3.27159137      -8.20781272       0.12387110
H        2.28458850     -10.48356333       0.94915824
H       -0.49103626     -10.92756847       2.34666862
H       -1.13384449     -12.45783859       4.17882013
H        0.55317162     -13.20544493       5.82933201
H        3.55856787     -10.86364085       3.82025337
C       -0.00445707       0.01189536      -1.78238275
H       -0.66409135       0.67374010      -2.43557963
H        0.65740317      -0.63156657      -2.45157240
C       -0.90989263      -0.90692880      -0.91072765
C        0.90977584       0.90977584      -0.90977584
C       -0.00465871       1.77757030       0.00794375
H       -0.66225468       2.44313916      -0.64384735
H        0.64322798       2.43503045       0.67728295
C       -1.78241447       0.00034974      -0.00472694
H       -2.45427497      -0.65498947       0.64260836
H       -2.43311707       0.67328779      -0.65473579
C       -0.91132561       0.90220522       0.91563759
C       -0.01476271      -0.02253852       1.78660255
H       -0.67934791      -0.69751639       2.42135241
H        0.63392994       0.61504881       2.47327442
C        0.01484550      -1.77751727      -0.01636693
H        0.67870853      -2.42144646      -0.68295456
H       -0.62264859      -2.45592969       0.64226336
C        1.78714474       0.01002794       0.00389507
H        2.44202412       0.67113390       0.66197326
H        2.45385902      -0.65136977      -0.64189061
C        0.91606151      -0.90478549       0.90901405
