174
Properties=species:S:1:pos:R:3 pbc="F F F"
C        1.79231904       1.79231904      -1.79231904
C        2.62266647       2.74584011      -1.20485328
C        3.42880291       3.55043626      -2.01079215
C        3.40226010       3.39854776      -3.39874324
C        2.56628700       2.44237822      -3.98515107
C        1.75840898       1.63574845      -3.17733554
C        2.53373101       2.28388408      -5.43837915
C        3.34676499       1.46849543      -6.13537564
C        4.43071393       0.59144623      -5.57399271
C        4.51504256      -0.76406053      -6.27087511
C        4.61024592      -0.59153777      -7.78231511
C        3.41657672       0.16111383      -8.29383487
C        2.62978352      -0.31800025      -9.27564185
C        1.38845364       0.29510165      -9.75456706
C        1.40566648       1.18376290     -10.83414436
C        0.21949970       1.77081969     -11.28029445
C       -0.98878533       1.47012455     -10.65138715
C       -1.00382664       0.58406247      -9.57540192
Br      -2.64006502       0.17918182      -8.71766992
C        0.17623000      -0.00562892      -9.12342478
C        3.12955661       1.46239969      -7.61502197
O        2.77523373       2.46485331      -8.22371821
H        2.64682507       2.87154546      -0.12578843
H        4.07526793       4.29862292      -1.55883182
H        4.03076883       4.03383982      -4.01912592
H        1.10552714       0.89349361      -3.62865470
H        1.78110436       2.88858692      -5.94351443
H        4.29635200       0.41694698      -4.50077566
H        5.38928852       1.11376003      -5.68974340
H        5.39404733      -1.30844414      -5.90637759
H        3.63531597      -1.36950553      -6.01614776
H        5.52385985      -0.04370866      -8.04380561
H        4.68817418      -1.57951184      -8.25100009
H        2.86412146      -1.26827753      -9.74971877
H        2.34496321       1.44325708     -11.31671846
H        0.24167510       2.47264340     -12.11012038
H       -1.90600279       1.93630615     -11.00035198
H        0.15499659      -0.69147211      -8.28096753
C       -1.79231904      -1.79231904      -1.79231904
C       -1.24047648      -2.43076786      -2.90211551
C       -2.04622460      -3.23705115      -3.70675556
C       -3.39832670      -3.40223192      -3.39899249
C       -3.94942055      -2.75839960      -2.28599614
C       -3.14176099      -1.95039031      -1.47934166
C       -5.36571227      -2.92659193      -1.96369004
C       -5.85972111      -3.90654343      -1.18437152
C       -5.07528580      -5.00229847      -0.51856861
C       -5.58252748      -5.32408390       0.88475423
C       -7.08356170      -5.58864136       0.87117980
C       -7.81543895      -4.39232392       0.33623745
C       -8.81078195      -3.79348946       1.01684630
C       -9.49830332      -2.56164633       0.62182729
C      -10.67229724      -2.61523240      -0.13604410
C      -11.31808787      -1.43655281      -0.51597316
C      -10.79500129      -0.19991808      -0.13780700
C       -9.62463299      -0.14863438       0.61762963
Br      -8.91057886       1.52701638       1.12677577
C       -8.97344804      -1.32085203       1.00027422
C       -7.34178777      -3.87904090      -0.98614960
O       -8.10730108      -3.49451368      -1.86199049
H       -0.18984735      -2.30497137      -3.14934025
H       -1.62265379      -3.73414453      -4.57592435
H       -4.01967726      -4.02896343      -4.03509387
H       -3.56616037      -1.44622956      -0.61528551
H       -6.02354636      -2.18073827      -2.40892108
H       -4.01036430      -4.75442855      -0.44928178
H       -5.14818861      -5.90358368      -1.14101966
H       -5.05682724      -6.20547036       1.27031682
H       -5.35338772      -4.49232741       1.56375693
H       -7.30835120      -6.46107530       0.24546971
H       -7.41274773      -5.83447669       1.88756198
H       -9.13258750      -4.18998818       1.97701298
H      -11.07593290      -3.57290379      -0.45610207
H      -12.22184681      -1.48447022      -1.11812185
H      -11.29982133       0.71237388      -0.44320790
H       -8.05914046      -1.27049476       1.58514321
C       -1.79231904       1.79231904       1.79231904
C       -2.59284499       2.77275162       1.20776325
C       -3.39900688       3.57735209       2.01367234
C       -3.40226252       3.39861600       3.39867259
C       -2.59614283       2.41544700       3.98222646
C       -1.78824228       1.60881558       3.17443510
C       -2.59477826       2.22875005       5.43246593
C       -3.43652449       1.41616792       6.09794366
C       -4.52586866       0.57112436       5.49915986
C       -4.64944523      -0.79549812       6.16791005
C       -4.77062753      -0.64993081       7.68032654
C       -3.57300228       0.06958250       8.22894064
C       -2.81463758      -0.44327144       9.21605897
C       -1.57139076       0.13643960       9.73029200
C       -1.59262511       1.00458083      10.82636778
C       -0.40438101       1.55994866      11.30628416
C        0.80993074       1.24790323      10.69475388
C        0.82897417       0.38233400       9.60227792
Br       2.47353564      -0.03780235       8.76812469
C       -0.35309920      -0.17567510       9.11660175
C       -3.24819008       1.37773202       7.58105617
O       -2.88673569       2.36137557       8.21569399
H       -2.59369058       2.91939515       0.13107324
H       -4.02224856       4.34638564       1.56408847
H       -4.03048478       4.03406005       4.01918973
H       -1.15846094       0.84559949       3.62361501
H       -1.84072220       2.80903866       5.96344485
H       -4.37407329       0.41449037       4.42551098
H       -5.47640255       1.10962361       5.60676579
H       -5.53141177      -1.31571428       5.77628330
H       -3.77661723      -1.41292736       5.91826833
H       -5.67855689      -0.08956802       7.93496792
H       -4.87639533      -1.64494141       8.12820852
H       -3.07614519      -1.39767019       9.66708770
H       -2.53599490       1.27300930      11.29593455
H       -0.42928786       2.24616596      12.14898507
H        1.72891008       1.68950091      11.07006452
H       -0.32858535      -0.84565934       8.26156601
C        1.79231904      -1.79231904       1.79231904
C        3.08116469      -1.37300285       2.11919232
C        3.88594710      -2.17844515       2.92563907
C        3.39973950      -3.39781883       3.40199278
C        2.10686279      -3.81666189       3.07029161
C        1.30010591      -3.00925753       2.26212952
C        1.59668703      -5.09472776       3.56457945
C        0.95553815      -5.25841742       4.73668048
C        0.65611847      -4.18969807       5.75033633
C       -0.72003307      -4.35096417       6.39092604
C       -0.90041221      -5.76133707       6.94009840
C       -0.73869775      -6.76993007       5.84029311
C       -1.67743147      -7.69601440       5.56884219
C       -1.65071475      -8.63998285       4.44885426
C       -1.09965460      -9.91534324       4.60788509
C       -1.07022487     -10.80730103       3.53353767
C       -1.59376945     -10.42951535       2.29698047
C       -2.14261578      -9.15776254       2.14049099
Br      -2.84799818      -8.64141254       0.46337235
C       -2.17506065      -8.26111275       3.20797375
C        0.51600113      -6.65652698       5.03445016
O        1.16164164      -7.63194966       4.67021396
H        3.46728056      -0.42668217       1.75019623
H        4.89335648      -1.85885751       3.18050868
H        4.03640895      -4.02119438       4.02613124
H        0.29611108      -3.33180956       1.99975481
H        1.77252401      -5.94036767       2.90031403
H        0.71456962      -3.18719327       5.31231175
H        1.42341233      -4.23529850       6.53408112
H       -0.83311602      -3.62262853       7.20246827
H       -1.50273344      -4.13182020       5.65287144
H       -0.16050361      -5.95912290       7.72533750
H       -1.88834912      -5.83912681       7.40888474
H       -2.58014354      -7.75308974       6.17261650
H       -0.66768239     -10.21186121       5.56075993
H       -0.62659410     -11.79169144       3.65934155
H       -1.56084634     -11.12693461       1.46456708
H       -2.60074237      -7.27032820       3.07490618
C       -0.00445707       0.01189536      -1.78238275
H       -0.66409135       0.67374010      -2.43557963
H        0.65740317      -0.63156657      -2.45157240
C       -0.90989263      -0.90692880      -0.91072765
C        0.90977584       0.90977584      -0.90977584
C       -0.00465871       1.77757030       0.00794375
H       -0.66225468       2.44313916      -0.64384735
H        0.64322798       2.43503045       0.67728295
C       -1.78241447       0.00034974      -0.00472694
H       -2.45427497      -0.65498947       0.64260836
H       -2.43311707       0.67328779      -0.65473579
C       -0.91132561       0.90220522       0.91563759
C       -0.01476271      -0.02253852       1.78660255
H       -0.67934791      -0.69751639       2.42135241
H        0.63392994       0.61504881       2.47327442
C        0.01484550      -1.77751727      -0.01636693
H        0.67870853      -2.42144646      -0.68295456
H       -0.62264859      -2.45592969       0.64226336
C        1.78714474       0.01002794       0.00389507
H        2.44202412       0.67113390       0.66197326
H        2.45385902      -0.65136977      -0.64189061
C        0.91606151      -0.90478549       0.90901405
