153
Properties=species:S:1:pos:R:3 pbc="F F F"
C        0.00000000       0.00000000       0.00000000
C        0.88241502       0.88241502      -0.88241502
C        1.71276245       1.83593608      -0.29494925
C        2.51889888       2.64053223      -1.10088812
C        2.49235608       2.48864374      -2.48883922
C        1.65638298       1.53247420      -3.07524704
C        0.84850495       0.72584442      -2.26743152
C        1.62382698       1.37398006      -4.52847512
C        2.43686097       0.55859141      -5.22547161
C        3.52080990      -0.31845779      -4.66408868
C        3.60513854      -1.67396455      -5.36097109
C        3.70034190      -1.50144180      -6.87241108
C        2.50667270      -0.74879019      -7.38393085
C        1.71987949      -1.22790428      -8.36573783
C        0.47854962      -0.61480237      -8.84466304
C        0.49576245       0.27385887      -9.92424033
C       -0.69040432       0.86091566     -10.37039043
C       -1.89868935       0.56022052      -9.74148312
C       -1.91373066      -0.32584155      -8.66549789
Br      -3.54996905      -0.73072221      -7.80776589
C       -0.73367402      -0.91553294      -8.21352075
C        2.21965259       0.55249567      -6.70511794
O        1.86532971       1.55494929      -7.31381418
H        1.73692105       1.96164143       0.78411559
H        3.16536390       3.38871889      -0.64892780
H        3.12086480       3.12393579      -3.10922189
H        0.19562311      -0.01641042      -2.71875067
H        0.87120034       1.97868290      -5.03361040
H        3.38644797      -0.49295704      -3.59087164
H        4.47938449       0.20385601      -4.77983938
H        4.48414331      -2.21834816      -4.99647357
H        2.72541194      -2.27940955      -5.10624374
H        4.61395582      -0.95361269      -7.13390158
H        3.77827016      -2.48941587      -7.34109607
H        1.95421744      -2.17818156      -8.83981474
H        1.43505919       0.53335306     -10.40681443
H       -0.66822892       1.56273938     -11.20021635
H       -2.81590681       1.02640213     -10.09044796
H       -0.75490744      -1.60137614      -7.37106351
C       -0.88241502      -0.88241502      -0.88241502
C       -2.05206332      -0.35943402      -1.43215044
C       -2.85673546      -1.16509460      -2.23848917
C       -2.48929819      -2.48825806      -2.49228278
C       -1.31620574      -3.01059572      -1.93730276
C       -0.50952951      -2.20300859      -1.12924280
C       -0.93113058      -4.39682686      -2.19832473
C       -0.18169624      -4.79687330      -3.24235445
C        0.38256710      -3.92224451      -4.32676339
C        1.79060366      -4.33550009      -4.74724865
C        1.83986976      -5.81948339      -5.09169756
C        1.40884928      -6.63977850      -3.91088413
C        2.17115300      -7.62623975      -3.40262629
C        1.87931060      -8.39654725      -2.19117364
C        1.18098230      -9.60557182      -2.26927213
C        0.89916275     -10.33071549      -1.10934902
C        1.31639437      -9.85214938       0.13274072
C        2.01235628      -8.64675391       0.20847195
Br       2.57417493      -7.99321741       1.89196784
C        2.29695669      -7.91641593      -0.94485454
C        0.09362427      -6.26547531      -3.30541516
O       -0.71959810      -7.09606573      -2.91842936
H       -2.34577277       0.66840217      -1.23707629
H       -3.77217739      -0.76425385      -2.66657936
H       -3.12564994      -3.11013132      -3.11824124
H        0.40123956      -2.60531580      -0.69388713
H       -1.30090187      -5.11527599      -1.46731578
H        0.41036508      -2.86928014      -4.02544750
H       -0.28323223      -3.98235272      -5.19749493
H        2.10032000      -3.74508388      -5.61750483
H        2.50100074      -4.11295413      -3.94029274
H        1.18018899      -6.03271341      -5.94172030
H        2.85701101      -6.08004835      -5.40691302
H        3.12369332      -7.87474821      -3.86479573
H        0.83067270      -9.97620781      -3.22969157
H        0.34254237     -11.26211370      -1.17515549
H        1.08721737     -10.41898865       1.03082800
H        2.83593572      -6.97556015      -0.87515551
C       -0.88241502       0.88241502       0.88241502
C       -1.71474832       0.29479289       1.83410657
C       -2.51933800       1.10085355       2.64012769
C       -2.48836999       2.48915307       2.49231598
C       -1.65375609       3.07545388       1.53489425
C       -0.84712327       2.26754030       0.72711732
C       -1.62223854       4.52860019       1.37544344
C       -0.80788379       5.35373147       2.05930873
C        0.19573704       4.95671634       3.10546149
C        1.48961713       5.76211399       3.01964822
C        1.19738061       7.25804030       3.01065150
C        0.31297773       7.60594008       1.84885101
C        0.64400414       8.55186160       0.94985558
C       -0.10274228       8.87425277      -0.26858476
C       -1.07576733       9.87857281      -0.26047849
C       -1.78954599      10.17512798      -1.42377221
C       -1.53197020       9.47136522      -2.60032113
C       -0.56166206       8.47059429      -2.60633067
Br      -0.21464151       7.51135387      -4.19892074
C        0.15475040       8.16793837      -1.44887418
C       -0.94443041       6.80552439       1.72731139
O       -2.01956991       7.30166986       1.41285341
H       -1.74611739      -0.78483968       1.95316918
H       -3.17359453       0.64827975       3.38113631
H       -3.12292685       3.10905954       3.12203611
H       -0.19920634       2.71846854      -0.01971151
H       -2.32464557       4.91917131       0.63967676
H        0.44967157       3.89291402       3.04112012
H       -0.25794180       5.11222073       4.09291735
H        2.13005282       5.51725180       3.87506973
H        2.04383656       5.48175737       2.11432532
H        0.70246813       7.55249786       3.94421499
H        2.14505682       7.80747772       2.96752946
H        1.56601061       9.11698496       1.06487629
H       -1.30103231      10.41736723       0.65682714
H       -2.55539177      10.94639995      -1.40706491
H       -2.09639659       9.70367070      -3.49912401
H        0.90586848       7.38294964      -1.46230123
C        0.88241502      -0.88241502       0.88241502
C        0.44262235      -2.15428029       1.24674514
C        1.24901208      -2.95984837       2.05145879
C        2.49031555      -2.49182631       2.48769718
C        2.92764237      -1.21427749       2.12218436
C        2.11947397      -0.40688703       1.31541989
C        4.22525017      -0.72030712       2.58072488
C        5.38700606      -0.90681703       1.92710090
C        5.57825368      -1.65224055       0.63594657
C        6.59442000      -0.98502560      -0.28730053
C        7.90299823      -0.72023196       0.44808099
C        7.65827129       0.15738464       1.64092671
C        8.32841662       1.30835895       1.83765538
C        8.07455070       2.27496121       2.90882079
C        8.77722139       2.19881108       4.11545134
C        8.52428585       3.11879832       5.13541423
C        7.57038515       4.12009341       4.95272256
C        6.87100632       4.19429153       3.74921088
Br       5.57331305       5.54761250       3.50137409
C        7.11711834       3.27908702       2.72628247
C        6.59086408      -0.30619451       2.58020760
O        6.70130271      -0.23453628       3.79825419
H       -0.52311134      -2.52429769       0.91326053
H        0.90971968      -3.95091734       2.34237357
H        3.10986558      -3.12532342       3.11883349
H        2.45397342       0.58720026       1.03119021
H        4.19420172      -0.16913943       3.52015248
H        4.63644626      -1.76102576       0.08689055
H        5.92254496      -2.66722750       0.87330742
H        6.78252899      -1.63191570      -1.15217598
H        6.18381820      -0.04355645      -0.67512853
H        8.34911915      -1.66607551       0.77905005
H        8.61608454      -0.25912261      -0.24525679
H        9.09904594       1.61934756       1.13615225
H        9.50613842       1.40826660       4.27735486
H        9.06283762       3.04488476       6.07677395
H        7.37488482       4.82763492       5.75369338
H        6.56352003       3.34222663       1.79348654
