194
Properties=species:S:1:pos:R:3 pbc="F F F"
C        1.79180164       1.79180164      -1.79180164
C        2.54286342       2.81508874      -1.21468688
C        3.34883649       3.62018979      -2.02087694
C        3.39956086       3.40047032      -3.39885646
C        2.64241191       2.37573681      -3.97609822
C        1.83661433       1.56711978      -3.16710893
C        2.68753053       2.14909132      -5.42033127
C        3.53847088       1.30794564      -6.03548161
C        4.60473707       0.47068338      -5.38944775
C        4.60757436      -0.96445783      -5.92933450
C        5.73881241      -1.77514143      -5.29702879
C        4.74669478      -0.94462478      -7.45597511
C        3.64737775      -0.14333807      -8.09874220
C        2.92617270      -0.62880909      -9.12681871
C        1.79540769       0.03206477      -9.78376318
C        0.49525084      -0.16427298      -9.30322314
C       -0.58742722       0.45680724      -9.92955676
C       -0.37505626       1.27721495     -11.03746852
C        0.92100330       1.47392950     -11.51294453
C        2.00688110       0.85477793     -10.89455066
C        3.38649184       1.21200470      -7.51944902
O        3.09297417       2.18555445      -8.20152923
H        2.50521735       2.99461652      -0.14301343
H        3.93368830       4.42129601      -1.57671719
H        4.02701383       4.03645113      -4.01966071
H        1.24500699       0.77060924      -3.61083334
H        1.95470098       2.71921741      -5.99163100
H        4.48835267       0.43987403      -4.30053489
H        5.57664822       0.94299587      -5.58355779
H        3.65622638      -1.44605466      -5.66225462
H        6.71833499      -1.34997239      -5.53986586
H        5.72076262      -2.80964899      -5.65544384
H        5.63951404      -1.79642553      -4.20697289
H        5.71258389      -0.50927167      -7.74343679
H        4.74471057      -1.97581194      -7.83057515
H        3.14370923      -1.61744824      -9.52558685
H        0.31751009      -0.79789741      -8.43767412
H       -1.59481934       0.30499878      -9.55135354
H       -1.22079852       1.76177179     -11.51760417
H        3.01579157       1.02622829     -11.26014247
C        1.13933150       2.32371286     -12.65478560
C        1.32218137       3.03540643     -13.61107750
Br       1.61783414       4.18615474     -15.15732061
C       -1.79180164      -1.79180164      -1.79180164
C       -2.77838494      -1.20838246      -2.58587164
C       -3.58349260      -2.01459568      -3.39181494
C       -3.40045029      -3.39883265      -3.39960470
C       -2.41258796      -3.98225013      -2.59940885
C       -1.60388527      -3.17333861      -1.79361915
C       -2.22459558      -5.43272309      -2.59963446
C       -1.37821430      -6.09330724      -3.41037659
C       -0.49529170      -5.49944916      -4.47012735
C        0.92403137      -6.07740421      -4.41907819
C        1.78175546      -5.49833893      -5.54411629
C        0.86597604      -7.60621477      -4.51780639
C        0.01820825      -8.19686240      -3.42412773
C        0.45577555      -9.21734651      -2.66261136
C       -0.25291352      -9.82505257      -1.53326955
C       -0.07829001      -9.31438432      -0.24152667
C       -0.74508717      -9.89388809       0.84003847
C       -1.58966053     -10.98487709       0.63491041
C       -1.76463099     -11.49036235      -0.65288398
C       -1.09989370     -10.91882885      -1.73748715
C       -1.32719439      -7.57457218      -3.21617899
O       -2.32662525      -8.22204281      -2.93138979
H       -2.92933381      -0.13166070      -2.58185279
H       -4.35615843      -1.56540853      -4.01013454
H       -4.03624210      -4.01941369      -4.02746989
H       -0.83598048      -3.62178214      -1.16868695
H       -2.82960571      -5.96821160      -1.86773208
H       -0.43769048      -4.40896279      -4.38210833
H       -0.94659470      -5.70749481      -5.44911237
H        1.38716741      -5.79725590      -3.46233785
H        1.37642561      -5.75654596      -6.52810810
H        2.80516849      -5.88366549      -5.48806046
H        1.83032687      -4.40692517      -5.47346309
H        0.44887849      -7.90836647      -5.48726102
H        1.88605601      -8.00806714      -4.47746265
H        1.43854637      -9.64824441      -2.84214979
H        0.57390272      -8.46153541      -0.06965411
H       -0.60994185      -9.49233661       1.84074548
H       -2.10967904     -11.42845414       1.47955573
H       -1.25427924     -11.30729454      -2.74058857
C       -2.63933157     -12.61463368      -0.86386471
C       -3.37189331     -13.55621092      -1.04056106
Br      -4.55638368     -15.07866168      -1.32626413
C       -1.79180164       1.79180164       1.79180164
C       -1.39535863       2.08011229       3.09716811
C       -2.20126945       2.88634930       3.90228447
C       -3.39918315       3.39914132       3.40056317
C       -3.79669262       3.10556254       2.09199178
C       -2.98708928       2.29944348       1.28431027
C       -5.05513094       3.63473387       1.56708831
C       -5.17716035       4.79961443       0.90512335
C       -4.08372682       5.78238338       0.59875801
C       -4.14984429       6.27454546      -0.85193872
C       -3.06235444       7.31556044      -1.11721512
C       -5.53756233       6.85951845      -1.13903567
C       -6.62463714       5.85335206      -0.87520733
C       -7.59408863       5.60636885      -1.77627517
C       -8.65907460       4.60732137      -1.65516033
C       -8.45082921       3.30328331      -2.11991151
C       -9.46452286       2.34857485      -2.01416093
C      -10.68948765       2.69280838      -1.44266882
C      -10.89409085       3.99143918      -0.97765271
C       -9.88760178       4.95106702      -1.08245910
C       -6.55668403       5.12855278       0.43270875
O       -7.54875083       4.84107062       1.09023640
H       -0.46592443       1.68100780       3.49591506
H       -1.89869942       3.11146554       4.92153653
H       -4.02305401       4.02264713       4.03742453
H       -3.29218052       2.06689556       0.26737349
H       -5.92287669       2.99891137       1.74376132
H       -3.09277937       5.35304866       0.78293356
H       -4.18477271       6.63328276       1.28514641
H       -3.97375989       5.42277713      -1.52411067
H       -3.19255433       8.19893989      -0.48326576
H       -3.08611240       7.64244492      -2.16199985
H       -2.06933461       6.89953159      -0.91880481
H       -5.71525255       7.74142414      -0.50992768
H       -5.57365038       7.20540515      -2.17958174
H       -7.61543187       6.15310209      -2.71668612
H       -7.49873204       3.02173859      -2.56318382
H       -9.29783149       1.33633175      -2.37263026
H      -11.47270731       1.94441317      -1.35854303
H      -10.04819892       5.95643997      -0.70247654
C      -12.15797684       4.34474125      -0.38488813
C      -13.21648136       4.64063173       0.11155220
Br     -14.92799365       5.11906161       0.91425424
C        1.79180164      -1.79180164       1.79180164
C        1.20215065      -2.69246348       2.67802491
C        2.00841879      -3.49832830       3.48315613
C        3.39877952      -3.39971768       3.40039044
C        3.98807275      -2.49286770       2.51330649
C        3.17937249      -1.68707783       1.70439271
C        5.44413334      -2.38191527       2.43090451
C        6.21696534      -3.08315914       1.58177364
C        5.76190904      -4.11397572       0.58898345
C        6.42887108      -3.92184286      -0.77826291
C        5.99155177      -5.01845135      -1.74930337
C        7.95343876      -3.92139909      -0.61679273
C        8.40521726      -2.85449896       0.34306566
C        9.39520386      -1.99644516       0.03253329
C        9.87074275      -0.88286998       0.85762291
C        9.28108646       0.38080656       0.73392110
C        9.73482807       1.44796396       1.51207267
C       10.77846234       1.25629727       2.41746213
C       11.36265261      -0.00382390       2.54140082
C       10.91692301      -1.07361681       1.76566988
C        7.68041766      -2.78654632       1.65098158
O        8.23691743      -2.53171005       2.71143037
H        0.12023609      -2.77181623       2.75079497
H        1.55405530      -4.19962498       4.17802123
H        4.01886269      -4.02864516       4.03561782
H        3.63219833      -0.97959451       1.01465673
H        5.88346938      -1.66121650       3.12086350
H        4.67426856      -4.09561244       0.45888060
H        6.00922747      -5.10675507       0.98721934
H        6.11220371      -2.95519767      -1.19497503
H        6.29224186      -6.00951936      -1.39353277
H        6.43982167      -4.86287390      -2.73613811
H        4.90363416      -5.01808328      -1.87165605
H        8.29601791      -4.89589299      -0.24516189
H        8.41906353      -3.78058552      -1.60017527
H        9.90309172      -2.07517876      -0.92642264
H        8.46388407       0.54152045       0.03492318
H        9.27210487       2.42651873       1.41594683
H       11.12391774       2.08913787       3.02379757
H       11.36550235      -2.05682356       1.87983643
C       12.43780179      -0.20124941       3.47877876
C       13.33823923      -0.36659328       4.26383278
Br      14.79417041      -0.63394034       5.53319874
C       -0.00445707       0.01189536      -1.78238275
H       -0.66409135       0.67374010      -2.43557963
H        0.65740317      -0.63156657      -2.45157240
C       -0.90989263      -0.90692880      -0.91072765
C        0.90977584       0.90977584      -0.90977584
C       -0.00465871       1.77757030       0.00794375
H       -0.66225468       2.44313916      -0.64384735
H        0.64322798       2.43503045       0.67728295
C       -1.78241447       0.00034974      -0.00472694
H       -2.45427497      -0.65498947       0.64260836
H       -2.43311707       0.67328779      -0.65473579
C       -0.91132561       0.90220522       0.91563759
C       -0.01476271      -0.02253852       1.78660255
H       -0.67934791      -0.69751639       2.42135241
H        0.63392994       0.61504881       2.47327442
C        0.01484550      -1.77751727      -0.01636693
H        0.67870853      -2.42144646      -0.68295456
H       -0.62264859      -2.45592969       0.64226336
C        1.78714474       0.01002794       0.00389507
H        2.44202412       0.67113390       0.66197326
H        2.45385902      -0.65136977      -0.64189061
C        0.91606151      -0.90478549       0.90901405
