186
Properties=species:S:1:pos:R:3 pbc="F F F"
O        4.98322672       6.07553083      -8.45100466
C        4.34999839       5.26271671      -7.77482086
N        4.63928607       5.12881884      -6.43367205
N        3.93357264       4.31870615      -5.59482271
C        4.24403266       4.29276054      -4.32676764
C        5.39558695       5.10582503      -3.75563308
C        3.41899157       3.42126786      -3.40787346
C        2.28681161       2.77612459      -3.93711869
C        1.47715381       1.96397816      -3.13448058
C        1.79078407       1.79078407      -1.79078407
C        2.90799070       2.41758409      -1.24707524
C        3.72192476       3.22593748      -2.05294319
C        3.26048471       4.35103367      -8.33911442
O        2.69176101       4.90587950      -9.52037992
C        2.30616405       4.03593921     -10.50774407
C        2.60928084       4.46543271     -11.82030129
C        3.35044794       5.75455775     -12.06205821
C        2.18712952       3.70577672     -12.92170279
C        1.48271504       2.52572559     -12.72228981
Br       0.90389868       1.51159952     -14.20885465
C        1.17973692       2.09765505     -11.43219053
C        1.56348789       2.85460923     -10.30798257
C        1.11662285       2.35822132      -8.96168109
H        5.36407830       5.74500260      -6.08463699
H        5.24662944       6.16251712      -3.99460258
H        6.33141039       4.76046224      -4.20811180
H        5.50299676       5.04312187      -2.67666101
H        2.01729561       2.90080719      -4.98405376
H        0.60830494       1.47747352      -3.56916144
H        3.15856105       2.28500655      -0.19725464
H        4.58386047       3.67844527      -1.57680740
H        2.46326265       4.25697185      -7.59785260
H        3.73693130       3.38105600      -8.52801838
H        4.26437365       5.79255226     -11.46059947
H        2.71183196       6.60699478     -11.81423854
H        3.65141831       5.85001738     -13.11088779
H        2.40435207       4.04407687     -13.93174975
H        0.61210395       1.17879404     -11.29834806
H        0.65170922       3.16362287      -8.38729320
H        1.95922558       1.93206510      -8.40887254
H        0.36331559       1.56753940      -9.05576220
O       -7.91686265      -7.07897245      -4.51392710
C       -7.12960186      -6.47482810      -3.78310601
N       -6.10364724      -5.74880496      -4.34932476
N       -5.24103340      -4.98333638      -3.62273172
C       -4.33008975      -4.28651959      -4.24695149
C       -4.16898334      -4.32930333      -5.75875839
C       -3.41368145      -3.41035695      -3.42409449
C       -3.66129620      -3.29428598      -2.04447270
C       -2.85424586      -2.49042839      -1.23093830
C       -1.79078407      -1.79078407      -1.79078407
C       -1.52612494      -1.89336005      -3.15316504
C       -2.33108072      -2.70342705      -3.96629767
C       -7.19598612      -6.49851974      -2.25612694
O       -8.51335681      -6.79767774      -1.80698588
C       -8.63944682      -7.54573101      -0.66466950
C       -9.66073303      -8.52240757      -0.71187424
C      -10.47927821      -8.72797554      -1.95981016
C       -9.94811852      -9.29196580       0.42547528
C       -9.22106623      -9.10314029       1.59347609
Br      -9.61987369     -10.13248024       3.12800108
C       -8.21472760      -8.14199569       1.64714079
C       -7.92395409      -7.33325609       0.53113049
C       -6.88189223      -6.26532221       0.71068919
H       -6.08276849      -5.74851278      -5.36243663
H       -5.11611206      -4.05564425      -6.23199282
H       -3.89576469      -5.34723895      -6.05698079
H       -3.41704026      -3.65224202      -6.15349737
H       -4.49095273      -3.82714904      -1.58405478
H       -3.06812124      -2.41872994      -0.16808872
H       -0.69535601      -1.34927102      -3.59619521
H       -2.06958649      -2.75270822      -5.01681844
H       -6.93198355      -5.50787649      -1.87822705
H       -6.46820635      -7.25062833      -1.92717099
H       -9.82871875      -8.85821087      -2.83059576
H      -11.14081779      -7.87208610      -2.12016139
H      -11.10029758      -9.62712140      -1.88490451
H      -10.74486358     -10.03097587       0.39566076
H       -7.66828818      -7.99824121       2.57728334
H       -7.24915555      -5.30173348       0.34826375
H       -5.95629884      -6.53948132       0.19561694
H       -6.62978092      -6.12499900       1.76816271
O       -5.71716640       8.53340846       5.25918735
C       -4.91065224       7.83776882       4.63911490
N       -4.94423284       6.46791025       4.78963388
N       -4.14857856       5.61896271       4.07956022
C       -4.28395658       4.33125014       4.24835412
C       -5.27275824       3.74184237       5.24244446
C       -3.42235206       3.40825077       3.41753006
C       -2.60592176       3.97294709       2.42118603
C       -1.79310258       3.16995404       1.61255594
C       -1.79078407       1.79078407       1.79078407
C       -2.58885801       1.21124431       2.77254771
C       -3.39807904       2.01658310       3.58614331
C       -3.83190761       8.40327149       3.71545370
O       -4.19949346       9.68966206       3.22886490
C       -3.19794382      10.60786953       3.04403399
C       -3.52526747      11.92314459       3.44660278
C       -4.85809867      12.23133118       4.07763405
C       -2.61732583      12.97000351       3.22727970
C       -1.39220000      12.71212714       2.62640329
Br      -0.17680370      14.12721934       2.32032981
C       -1.06405720      11.41920247       2.22632282
C       -1.96734053      10.35332552       2.40541364
C       -1.56128156       9.01160558       1.86363811
H       -5.66881386       6.11885148       5.40605256
H       -6.27721980       4.11031312       5.01621621
H       -4.98999625       4.05750321       6.25248498
H       -5.33037582       2.65727983       5.23512400
H       -2.59479004       5.04889251       2.25847400
H       -1.17220616       3.63247400       0.85025974
H       -2.59036797       0.13346020       2.91699406
H       -3.98872977       1.50998852       4.34039486
H       -3.72438042       7.73944583       2.85426085
H       -2.90683920       8.43481897       4.30434751
H       -5.05716181      11.54961054       4.91075304
H       -5.65482043      12.14466547       3.33357938
H       -4.88121650      13.24896459       4.48214239
H       -2.87513625      13.98460750       3.52043493
H       -0.10583498      11.24150622       1.74190486
H       -2.36337420       8.57947207       1.25977901
H       -1.28862147       8.33357980       2.67796194
H       -0.68643950       9.09204126       1.20813644
O        8.37095616      -4.84321571       6.29559033
C        7.70585261      -4.20097768       5.48070567
N        6.39684895      -4.56194173       5.24298629
N        5.56486780      -3.85756217       4.42467152
C        4.32348066      -4.24215886       4.29792131
C        3.77970965      -5.47647425       5.00086117
C        3.40777905      -3.41981433       3.42053952
C        3.90087755      -2.21820655       2.88097079
C        3.09836294      -1.40796125       2.06928837
C        1.79078407      -1.79078407       1.79078407
C        1.28342469      -2.97716951       2.31205583
C        2.08966353      -3.79123255       3.11990936
C        8.25281532      -3.02249293       4.67532456
O        9.35891205      -2.42014530       5.33896307
C       10.37028406      -1.91979644       4.55976684
C       11.67117950      -2.16976148       5.05407385
C       11.88161619      -2.97672390       6.30872381
C       12.78707337      -1.63320974       4.39432592
C       12.61456467      -0.86733953       3.24882623
Br      14.11942568      -0.13487587       2.37005130
C       11.33596106      -0.61624025       2.75738120
C       10.19503033      -1.11575398       3.41529538
C        8.85528724      -0.72032996       2.86090805
H        6.05865027      -5.34494715       5.79012048
H        3.94389900      -5.38195554       6.07789460
H        4.31193429      -6.35876866       4.62928149
H        2.71575485      -5.64495607       4.86206873
H        4.91866772      -1.89421485       3.08927398
H        3.50467010      -0.48465473       1.66561508
H        0.26201422      -3.28195482       2.09685319
H        1.64368322      -4.70797215       3.48745778
H        7.46861218      -2.26736650       4.58210842
H        8.53073150      -3.42282339       3.69245079
H       11.33935508      -3.92604270       6.25212761
H       11.54166538      -2.41083841       7.18056148
H       12.93998013      -3.21896128       6.45338207
H       13.78663537      -1.81009818       4.78344513
H       11.22174548       0.00047261       1.86797318
H        8.20415346      -0.34425867       3.65421315
H        8.38506908      -1.56562027       2.34947386
H        8.94829483       0.08687853       2.12520091
C       -0.00445707       0.01189536      -1.78238275
H       -0.66409135       0.67374010      -2.43557963
H        0.65740317      -0.63156657      -2.45157240
C       -0.90989263      -0.90692880      -0.91072765
C        0.90977584       0.90977584      -0.90977584
C       -0.00465871       1.77757030       0.00794375
H       -0.66225468       2.44313916      -0.64384735
H        0.64322798       2.43503045       0.67728295
C       -1.78241447       0.00034974      -0.00472694
H       -2.45427497      -0.65498947       0.64260836
H       -2.43311707       0.67328779      -0.65473579
C       -0.91132561       0.90220522       0.91563759
C       -0.01476271      -0.02253852       1.78660255
H       -0.67934791      -0.69751639       2.42135241
H        0.63392994       0.61504881       2.47327442
C        0.01484550      -1.77751727      -0.01636693
H        0.67870853      -2.42144646      -0.68295456
H       -0.62264859      -2.45592969       0.64226336
C        1.78714474       0.01002794       0.00389507
H        2.44202412       0.67113390       0.66197326
H        2.45385902      -0.65136977      -0.64189061
C        0.91606151      -0.90478549       0.90901405
