194
Properties=species:S:1:pos:R:3 pbc="F F F"
O        4.98322672       6.07553083      -8.45100466
C        4.34999839       5.26271671      -7.77482086
N        4.63928607       5.12881884      -6.43367205
N        3.93357264       4.31870615      -5.59482271
C        4.24403266       4.29276054      -4.32676764
C        5.39558695       5.10582503      -3.75563308
C        3.41899157       3.42126786      -3.40787346
C        2.28681161       2.77612459      -3.93711869
C        1.47715381       1.96397816      -3.13448058
C        1.79078407       1.79078407      -1.79078407
C        2.90799070       2.41758409      -1.24707524
C        3.72192476       3.22593748      -2.05294319
C        3.26048471       4.35103367      -8.33911442
O        2.69176101       4.90587950      -9.52037992
C        2.30616405       4.03593921     -10.50774407
C        2.60928084       4.46543271     -11.82030129
C        3.35044794       5.75455775     -12.06205821
C        2.18712952       3.70577672     -12.92170279
C        1.48271504       2.52572559     -12.72228981
C        1.17973692       2.09765505     -11.43219053
C        1.56348789       2.85460923     -10.30798257
C        1.11662285       2.35822132      -8.96168109
H        5.36407830       5.74500260      -6.08463699
H        5.24662944       6.16251712      -3.99460258
H        6.33141039       4.76046224      -4.20811180
H        5.50299676       5.04312187      -2.67666101
H        2.01729561       2.90080719      -4.98405376
H        0.60830494       1.47747352      -3.56916144
H        3.15856105       2.28500655      -0.19725464
H        4.58386047       3.67844527      -1.57680740
H        2.46326265       4.25697185      -7.59785260
H        3.73693130       3.38105600      -8.52801838
H        4.26437365       5.79255226     -11.46059947
H        2.71183196       6.60699478     -11.81423854
H        3.65141831       5.85001738     -13.11088779
H        2.40435207       4.04407687     -13.93174975
H        0.61210395       1.17879404     -11.29834806
H        0.65170922       3.16362287      -8.38729320
H        1.95922558       1.93206510      -8.40887254
H        0.36331559       1.56753940      -9.05576220
C        1.04178955       1.75319381     -13.85471171
C        0.67251446       1.10619845     -14.80311506
Br       0.07542786       0.06006168     -16.33660306
O       -8.02551380      -6.92771490      -4.55653350
C       -7.24405325      -6.32575178      -3.81773092
N       -6.16312492      -5.67067761      -4.36797443
N       -5.29902779      -4.91113186      -3.63694185
C       -4.33170649      -4.28286887      -4.24898547
C       -4.10784060      -4.40041471      -5.74878975
C       -3.41308443      -3.41083120      -3.42421726
C       -3.71431608      -3.22235940      -2.06337940
C       -2.90768793      -2.41820433      -1.24972029
C       -1.79078407      -1.79078407      -1.79078407
C       -1.47267594      -1.96574518      -3.13422891
C       -2.27750982      -2.77616964      -3.94712598
C       -7.37701900      -6.27794322      -2.29567058
O       -8.72458907      -6.49970996      -1.89372140
C       -8.93315059      -7.18957573      -0.72712102
C       -9.99430892      -8.12257741      -0.77812852
C      -10.76685600      -8.34862220      -2.05158571
C      -10.36460637      -8.82719548       0.37719282
C       -9.68069085      -8.61751855       1.56747897
C       -8.63542667      -7.69908595       1.62493012
C       -8.26090488      -6.95454931       0.48937450
C       -7.18060127      -5.92541398       0.66949000
H       -6.09871927      -5.71679825      -5.37820038
H       -5.02049763      -4.10782801      -6.27542350
H       -3.86806131      -5.44152414      -5.99039899
H       -3.30996520      -3.77472389      -6.13809056
H       -4.58609992      -3.69783941      -1.61821722
H       -3.16362077      -2.28970085      -0.20161828
H       -0.60002504      -1.47832759      -3.56246961
H       -1.97357319      -2.88379250      -4.98174746
H       -7.08526816      -5.28358920      -1.94922974
H       -6.69857849      -7.04510546      -1.90232173
H      -10.08597085      -8.54569396      -2.88586057
H      -11.38177049      -7.47315297      -2.27814182
H      -11.43028853      -9.21596499      -1.96606996
H      -11.19172838      -9.53186244       0.34341213
H       -8.12357370      -7.53731414       2.57164179
H       -7.48828323      -4.96418325       0.24984120
H       -6.24697257      -6.26197420       0.20878356
H       -6.96813502      -5.74869305       1.73021087
C      -10.06938404      -9.33454585       2.75423482
C      -10.39491459      -9.93505622       3.74814284
Br     -10.92126996     -10.90603069       5.35520805
O       -6.06279054       8.45498092       4.99199074
C       -5.25013648       7.77813626       4.35926322
N       -5.12222746       6.43545082       4.64409868
N       -4.31260474       5.59621877       3.93827799
C       -4.29245627       4.32694599       4.24415857
C       -5.11184700       3.75458801       5.39061006
C       -3.42130863       3.40788200       3.41894226
C       -2.77006193       3.93889860       2.29109435
C       -1.95788978       3.13625123       1.48147155
C       -1.79078407       1.79078407       1.79078407
C       -2.42368569       1.24529145       2.90367289
C       -3.23206876       2.05113895       3.71759773
C       -4.33238214       8.34306245       3.27518821
O       -4.88079095       9.52844258       2.70878690
C       -4.00581892      10.51400427       2.33002415
C       -4.43160641      11.82701331       2.63639512
C       -5.72255671      12.07079520       3.37371199
C       -3.66636409      12.92715113       2.22109382
C       -2.48446621      12.72597947       1.52028475
C       -2.06001975      11.43543280       1.21412995
C       -2.82250256      10.31261979       1.59095734
C       -2.32941593       8.96614806       1.14096126
H       -5.74235325       6.08603026       5.36533438
H       -6.16709924       3.99799286       5.23865703
H       -4.76827523       4.20235444       6.32935476
H       -5.05349975       2.67500542       5.49427448
H       -2.88990829       4.98726778       2.02498049
H       -1.46659647       3.57232271       0.61602072
H       -2.29588531       0.19407722       3.15085971
H       -3.68949234       1.57351326       4.57610756
H       -4.23810546       7.60438972       2.47559191
H       -3.36347920       8.52664288       3.75588360
H       -5.76612399      11.46613074       4.28527066
H       -6.57353951      11.82846203       2.73106374
H       -5.81527474      13.11885774       3.67819101
H       -4.00175321      13.93763332       2.44079216
H       -1.13957162      11.30029084       0.64938359
H       -3.13520204       8.39644043       0.67098280
H       -1.90839753       8.40868533       1.98308036
H       -1.53562490       9.06008007       0.39091222
C       -1.70616528      13.85715875       1.08637104
C       -1.05433826      14.80452140       0.72296831
Br      -0.00038909      16.33632668       0.13537683
O        8.44589921      -4.97230777       6.09155522
C        7.77054356      -4.33844624       5.27854615
N        6.43137884      -4.63328591       5.13711221
N        5.59301324      -3.92770262       4.32638563
C        4.32654142      -4.24387705       4.29314237
C        3.75700278      -5.40180022       5.09824207
C        3.40786322      -3.41905331       3.42121636
C        3.93482957      -2.28147411       2.78375121
C        3.13220277      -1.47177246       1.97163732
C        1.79078407      -1.79078407       1.79078407
C        1.24936963      -2.91337200       2.40990840
C        2.05526346      -3.72731740       3.21822459
C        8.33398273      -3.24213751       4.37451257
O        9.51003537      -2.67055226       4.93743280
C       10.49960131      -2.27638960       4.07385642
C       11.81155488      -2.57544140       4.50801856
C       12.05079836      -3.32144471       5.79482083
C       12.91447856      -2.14471023       3.75542025
C       12.71724575      -1.43576845       2.57771623
C       11.42774373      -1.13675846       2.14508031
C       10.30184882      -1.52918265       2.89504821
C        8.95579463      -1.08623155       2.39449907
H        6.08286697      -5.36252195       5.74832898
H        3.99041038      -5.25663511       6.15670365
H        4.21539338      -6.33392122       4.75066984
H        2.67883960      -5.51388767       5.03005237
H        4.97992076      -2.00771831       2.91451749
H        3.56509464      -0.59868845       1.49115681
H        0.20134165      -3.16815932       2.27132127
H        1.58104215      -4.59352203       3.66454897
H        7.58948071      -2.44791166       4.28069472
H        8.52955553      -3.71321507       3.40323508
H       11.45340676      -4.23829729       5.82582134
H       11.79610207      -2.68792866       6.64903455
H       13.10055865      -3.61801916       5.89374568
H       13.92395089      -2.35884106       4.09738673
H       11.29550990      -0.56550194       1.22823421
H        8.37555757      -0.62770077       3.19936694
H        8.40886016      -1.92939063       1.96191242
H        9.05002984      -0.32884798       1.60773938
C       13.85116161      -0.98606103       1.81247243
C       14.80081614      -0.60943107       1.17158075
Br      16.33632720      -0.00045228       0.13531312
C       -0.00445707       0.01189536      -1.78238275
H       -0.66409135       0.67374010      -2.43557963
H        0.65740317      -0.63156657      -2.45157240
C       -0.90989263      -0.90692880      -0.91072765
C        0.90977584       0.90977584      -0.90977584
C       -0.00465871       1.77757030       0.00794375
H       -0.66225468       2.44313916      -0.64384735
H        0.64322798       2.43503045       0.67728295
C       -1.78241447       0.00034974      -0.00472694
H       -2.45427497      -0.65498947       0.64260836
H       -2.43311707       0.67328779      -0.65473579
C       -0.91132561       0.90220522       0.91563759
C       -0.01476271      -0.02253852       1.78660255
H       -0.67934791      -0.69751639       2.42135241
H        0.63392994       0.61504881       2.47327442
C        0.01484550      -1.77751727      -0.01636693
H        0.67870853      -2.42144646      -0.68295456
H       -0.62264859      -2.45592969       0.64226336
C        1.78714474       0.01002794       0.00389507
H        2.44202412       0.67113390       0.66197326
H        2.45385902      -0.65136977      -0.64189061
C        0.91606151      -0.90478549       0.90901405
