157
Properties=species:S:1:pos:R:3 pbc="F F F"
C        0.00000000       0.00000000       0.00000000
C        0.88132169       0.88132169      -0.88132169
C        2.12415296       1.28970491      -0.42624234
C        2.92639405       2.09434589      -1.24110281
C        2.51857680       2.50726578      -2.53703453
C        1.22712454       2.09293738      -2.96085428
C        0.72793461       2.49821905      -4.20760026
C        1.47490025       3.31539601      -5.05147046
C        2.74514024       3.72234057      -4.66239786
O        3.47659384       4.50961035      -5.51091219
C        3.28532566       3.31899573      -3.42844227
C        4.67331132       3.77234588      -3.14033619
N        5.48535052       3.10664201      -2.38079047
C        6.72129861       3.64421132      -2.23399635
N        7.22768061       4.76903482      -2.70009290
C        8.51998411       4.82487791      -2.24956767
C        9.49460466       5.81147892      -2.46570498
C       10.76188685       5.64813827      -1.89240886
C       11.04594081       4.52144277      -1.12009167
C       10.09081162       3.52366409      -0.89207955
C        8.83060823       3.71063475      -1.47677792
N        7.66973600       2.97708071      -1.48341065
C        7.44151731       1.71178473      -0.82980151
C        0.42986650       1.28096147      -2.13556814
H        2.48372697       0.99729693       0.55659857
H        3.88334816       2.40740320      -0.83284906
H       -0.26288373       2.18408661      -4.53222296
H        1.05164483       3.61479071      -6.00583847
H        2.97290604       4.67091066      -6.32604218
H        4.98669087       4.70684617      -3.64401349
H        9.25944619       6.68173723      -3.06833084
H       11.51871684       6.41087369      -2.05780523
H       10.31821989       2.65021450      -0.29190027
H        6.58459334       1.81473809      -0.15822126
H        8.31950826       1.42139315      -0.25010574
H        7.24203155       0.95750371      -1.59520298
H       -0.55415392       0.96135842      -2.47188524
C       12.35617020       4.37797576      -0.54016394
C       13.45348731       4.25782213      -0.05447446
Br      15.22775626       4.06354388       0.73084434
C       -0.88132169      -0.88132169      -0.88132169
C       -0.30546738      -1.67533228      -1.85930055
C       -1.11970842      -2.48195108      -2.66018325
C       -2.53021453      -2.52904163      -2.50362095
C       -3.08966814      -1.68164224      -1.50960582
C       -4.47912825      -1.63124604      -1.32337963
C       -5.33890411      -2.39763714      -2.10522546
C       -4.81272226      -3.24236355      -3.07479285
O       -5.66887937      -4.00523037      -3.82300664
C       -3.42399209      -3.33320489      -3.27556668
C       -2.97240744      -4.30853259      -4.30505337
N       -1.81961150      -4.89845367      -4.25471783
C       -1.56695042      -5.77404998      -5.25850587
N       -2.28485272      -6.09487246      -6.31708315
C       -1.55875449      -7.03060407      -7.00507115
C       -1.87445974      -7.69929044      -8.19803837
C       -0.96033142      -8.62420708      -8.71789547
C        0.24289026      -8.87336445      -8.05700106
C        0.57878810      -8.22005855      -6.86528480
C       -0.35280646      -7.29940999      -6.36580446
N       -0.38404536      -6.48728984      -5.25889215
C        0.63021867      -6.37354385      -4.23977836
C       -2.26201192      -0.87723385      -0.70715034
H        0.76976687      -1.67793086      -2.01626134
H       -0.62513592      -3.07061913      -3.42784538
H       -4.90937260      -0.97986985      -0.56418340
H       -6.40946355      -2.32603940      -1.93677106
H       -6.58454136      -3.84553790      -3.53977963
H       -3.70014362      -4.52762595      -5.10978096
H       -2.81347262      -7.49548465      -8.70055699
H       -1.20199551      -9.14342412      -9.64197613
H        1.51480958      -8.41893351      -6.35621073
H        0.94194986      -5.32752021      -4.17198235
H        1.49395706      -6.99008379      -4.49488043
H        0.20677403      -6.71111101      -3.29040125
H       -2.69844336      -0.23797157       0.05732520
C        1.16666117      -9.82776863      -8.61320244
C        1.94031931     -10.62708212      -9.07902109
Br       3.19125909     -11.91950445      -9.83221045
C       -0.88132169       0.88132169       0.88132169
C       -0.72840311       2.25768421       0.85401289
C       -1.54185979       3.05782808       1.66215488
C       -2.53826343       2.51120260       2.51341108
C       -2.64927168       1.09477504       2.53686948
C       -3.57503027       0.47176592       3.38695773
C       -4.39665339       1.21767384       4.22743948
C       -4.31346167       2.60451511       4.21190189
O       -5.14152339       3.32626449       5.02932850
C       -3.41109276       3.26341618       3.35825471
C       -3.44582576       4.75098903       3.38917861
N       -3.12216633       5.48165736       2.36895932
C       -3.22561366       6.82088116       2.55301145
N       -3.55754081       7.51588975       3.62337778
C       -3.50130729       8.83485578       3.25826663
C       -3.76722332       9.98092414       4.02364110
C       -3.63797345      11.24009628       3.42436425
C       -3.25109150      11.34815183       2.08823192
C       -2.98226058      10.21960915       1.30468553
C       -3.11894857       8.97136779       1.92770455
N       -2.95024511       7.67612007       1.50386218
C       -2.55570337       7.24075275       0.18664742
C       -1.82918232       0.29944716       1.71776663
H        0.01725864       2.72508531       0.21659866
H       -1.37057032       4.13000617       1.62302392
H       -3.65886776      -0.61372772       3.40828581
H       -5.09575889       0.69932897       4.87718615
H       -5.71822523       2.72375448       5.52787918
H       -3.79880077       5.20271091       4.33603886
H       -4.06714033       9.88144737       5.06092656
H       -3.84294619      12.12961558       4.01483399
H       -2.68307570      10.31040235       0.26685660
H       -1.65874545       6.62170331       0.27710394
H       -2.33551237       8.10204329      -0.44654850
H       -3.37726464       6.66638099      -0.24890740
H       -1.92709260      -0.78389787       1.73589500
C       -3.12374691      12.65454576       1.49601722
C       -3.01709581      13.74865068       1.00003741
Br      -2.84465001      15.51772579       0.19808000
C        0.88132169      -0.88132169       0.88132169
C        0.52613952      -1.11427574       2.19968495
C        1.33738929      -1.92525748       2.99919599
C        2.52057207      -2.53617545       2.50612958
C        2.86923129      -2.25383626       1.15784865
C        4.04827508      -2.77800956       0.60746928
C        4.90348370      -3.57527515       1.36300787
C        4.57596410      -3.87412666       2.67978790
O        5.41629806      -4.67576196       3.40505636
C        3.39236124      -3.38235751       3.25804490
C        3.11919683      -3.80946866       4.65732790
N        1.91997231      -3.91588351       5.13692718
C        1.84033279      -4.33552280       6.42365068
N        2.79029325      -4.61063423       7.29588085
C        2.15568021      -4.98975343       8.44899606
C        2.70669538      -5.38827634       9.67681683
C        1.84482627      -5.73169793      10.72590978
C        0.46203820      -5.67704867      10.54838839
C       -0.11051405      -5.28431595       9.33275336
C        0.77338636      -4.94585875       8.29877580
N        0.60083865      -4.52696295       7.00242575
C       -0.65240531      -4.31468403       6.32082481
C        2.04488256      -1.44021417       0.36129938
H       -0.37186901      -0.67289385       2.62340048
H        1.02985916      -2.06143431       4.03230695
H        4.31829005      -2.55977360      -0.42463781
H        5.81120661      -3.95658318       0.90448422
H        6.16654479      -4.95100360       2.85231050
H        4.00970216      -4.06466131       5.26318707
H        3.78335010      -5.42609388       9.80007028
H        2.26875396      -6.04042719      11.67821460
H       -1.18566338      -5.24495995       9.20103808
H       -0.67946845      -3.28580269       5.95121846
H       -1.48732560      -4.47249155       7.00584121
H       -0.72005568      -5.02332306       5.49147085
H        2.31523295      -1.23645507      -0.67259829
C       -0.40257067      -6.03350940      11.64337115
C       -1.12668059      -6.33204527      12.56041922
Br      -2.29750510      -6.81475252      14.04320838
