149
Properties=species:S:1:pos:R:3 pbc="F F F"
C        0.00000000       0.00000000       0.00000000
C        0.88132169       0.88132169      -0.88132169
C        2.12415296       1.28970491      -0.42624234
C        2.92639405       2.09434589      -1.24110281
C        2.51857680       2.50726578      -2.53703453
C        1.22712454       2.09293738      -2.96085428
C        0.72793461       2.49821905      -4.20760026
C        1.47490025       3.31539601      -5.05147046
C        2.74514024       3.72234057      -4.66239786
O        3.47659384       4.50961035      -5.51091219
C        3.28532566       3.31899573      -3.42844227
C        4.67331132       3.77234588      -3.14033619
N        5.48535052       3.10664201      -2.38079047
C        6.72129861       3.64421132      -2.23399635
N        7.22768061       4.76903482      -2.70009290
C        8.51998411       4.82487791      -2.24956767
C        9.49460466       5.81147892      -2.46570498
C       10.76188685       5.64813827      -1.89240886
C       11.04594081       4.52144277      -1.12009167
Br      12.76940732       4.33272727      -0.35725881
C       10.09081162       3.52366409      -0.89207955
C        8.83060823       3.71063475      -1.47677792
N        7.66973600       2.97708071      -1.48341065
C        7.44151731       1.71178473      -0.82980151
C        0.42986650       1.28096147      -2.13556814
H        2.48372697       0.99729693       0.55659857
H        3.88334816       2.40740320      -0.83284906
H       -0.26288373       2.18408661      -4.53222296
H        1.05164483       3.61479071      -6.00583847
H        2.97290604       4.67091066      -6.32604218
H        4.98669087       4.70684617      -3.64401349
H        9.25944619       6.68173723      -3.06833084
H       11.51871684       6.41087369      -2.05780523
H       10.31821989       2.65021450      -0.29190027
H        6.58459334       1.81473809      -0.15822126
H        8.31950826       1.42139315      -0.25010574
H        7.24203155       0.95750371      -1.59520298
H       -0.55415392       0.96135842      -2.47188524
C       -0.88132169      -0.88132169      -0.88132169
C       -0.32455676      -1.56778867      -1.94775478
C       -1.13836287      -2.37531305      -2.74816683
C       -2.52843601      -2.53078049      -2.50366060
C       -3.07123674      -1.79106990      -1.41860956
C       -4.44464554      -1.84996150      -1.13914688
C       -5.30507286      -2.62185902      -1.91483483
C       -4.79386087      -3.36282326      -2.97319455
O       -5.64856977      -4.13315246      -3.71539414
C       -3.41955698      -3.34329468      -3.26991199
C       -2.97826775      -4.21556116      -4.39216448
N       -1.78877242      -4.72565827      -4.45835231
C       -1.55020657      -5.51419952      -5.53510018
N       -2.31775546      -5.81462886      -6.56442402
C       -1.58196717      -6.65059265      -7.36186988
C       -1.93585468      -7.26048246      -8.57545141
C       -1.00187258      -8.08352469      -9.21703670
C        0.25819358      -8.29069649      -8.65497234
Br       1.49856664      -9.40792995      -9.55003009
C        0.63309676      -7.69462687      -7.44502515
C       -0.31941491      -6.87572328      -6.82288272
N       -0.32623910      -6.14164563      -5.66234262
C        0.74706342      -6.02410249      -4.70606446
C       -2.24382293      -0.98491261      -0.61766057
H        0.73498713      -1.48514351      -2.17426895
H       -0.66122357      -2.87675453      -3.58562232
H       -4.86242867      -1.28105940      -0.30993778
H       -6.36365928      -2.63624331      -1.67237141
H       -6.55070302      -4.05652137      -3.36263450
H       -3.74453013      -4.43195917      -5.16106124
H       -2.91891550      -7.09034954      -9.00024922
H       -1.27304474      -8.55699068     -10.15736034
H        1.61331570      -7.86048744      -7.01316290
H        0.99391469      -4.96553197      -4.58593542
H        1.62925160      -6.56094945      -5.05930930
H        0.41377875      -6.45154919      -3.75696779
H       -2.66660699      -0.42884480       0.21636205
C       -0.88132169       0.88132169       0.88132169
C       -2.06399529       1.39780544       0.37829948
C       -2.86691794       2.20165846       1.19326635
C       -2.52048766       2.50617359       2.53621585
C       -1.28770269       1.98250035       3.01071316
C       -0.84750936       2.27643494       4.30980963
C       -1.59651550       3.08735036       5.15790086
C       -2.81091404       3.60013265       4.71883197
O       -3.54662085       4.37995653       5.57053900
C       -3.29265736       3.31003319       3.43007310
C       -4.62809785       3.87054618       3.08734936
N       -5.42795332       3.30777118       2.23705849
C       -6.61607097       3.93345187       2.04998343
N       -7.08166767       5.05824238       2.55689828
C       -8.33565139       5.22659225       2.03218605
C       -9.25967294       6.25991743       2.25219818
C      -10.49418291       6.21590173       1.59234934
C      -10.79579035       5.16009105       0.73159385
Br     -12.47373308       5.13247990      -0.14681957
C       -9.89108950       4.11764727       0.49781849
C       -8.66292188       4.18495900       1.17014003
N       -7.55244643       3.37766979       1.20011114
C       -7.36021679       2.14282735       0.48005940
C       -0.48950978       1.17231274       2.18457359
H       -2.37552872       1.19083314      -0.64193653
H       -3.77383456       2.60152410       0.74824176
H        0.09856498       1.87842964       4.67356119
H       -1.21925730       3.29885055       6.15416616
H       -3.08862039       4.45722337       6.42401513
H       -4.91568467       4.79078332       3.63108254
H       -9.01142058       7.07401319       2.92408048
H      -11.21176982       7.01508471       1.76054123
H      -10.13198082       3.29971287      -0.17135904
H       -6.45628453       2.23044422      -0.12917605
H       -8.21443415       1.94708177      -0.17050876
H       -7.25837180       1.33130338       1.20506305
H        0.44868822       0.76858483       2.55919313
C        0.88132169      -0.88132169       0.88132169
C        0.52310532      -1.11896970       2.19802519
C        1.33438720      -1.92991848       2.99753707
C        2.52065631      -2.53613478       2.50608601
C        2.87229489      -2.24903629       1.15958502
C        4.05434196      -2.76835926       0.61105269
C        4.90966694      -3.56534549       1.36675428
C        4.57930238      -3.86880855       2.68176774
O        5.41984984      -4.67012109       3.40714545
C        3.39270920      -3.38198049       3.25807396
C        3.11682850      -3.81378163       4.65538326
N        1.91656944      -3.92489962       5.13131394
C        1.83450627      -4.34837114       6.41662886
N        2.78278967      -4.62326964       7.29074902
C        2.14601764      -5.00740003       8.44101203
C        2.69470982      -5.40782431       9.66925442
C        1.83087452      -5.75660157      10.71495789
C        0.44844089      -5.70532573      10.53370863
Br      -0.69156666      -6.18143592      11.96952415
C       -0.12180607      -5.31078611       9.31757521
C        0.76403199      -4.96695395       8.28703497
N        0.59393896      -4.54490495       6.99138345
C       -0.65798286      -4.33422277       6.30686363
C        2.04789844      -1.43549216       0.36300551
H       -0.37732163      -0.68129505       2.62045191
H        1.02434941      -2.06985576       4.02939525
H        4.32663169      -2.54647136      -0.41967721
H        5.81973700      -3.94282183       0.90971518
H        6.17241095      -4.94170824       2.85573970
H        4.00634707      -4.06818012       5.26302334
H        3.77111718      -5.44297329       9.79542379
H        2.25299949      -6.06681520      11.66758107
H       -1.19668867      -5.27407072       9.18295261
H       -0.68689965      -3.30438759       5.94006476
H       -1.49437138      -4.49628980       6.98908873
H       -0.72132121      -5.04071716       5.47534227
H        2.32056925      -1.22807503      -0.66955454
