181
Properties=species:S:1:pos:R:3 pbc="F F F"
C        0.00000000       0.00000000       0.00000000
C        0.88268443       0.88268443      -0.88268443
C        1.46839589       0.34736510      -2.02872331
C        2.27371095       1.15468831      -2.83598442
C        2.50237409       2.49928524      -2.50091471
C        1.89648132       3.01656674      -1.34709523
C        1.09164032       2.21480937      -0.53729964
C        3.36407580       3.37254718      -3.40391634
H        4.18347468       2.75306484      -3.79016941
O        3.97861391       4.46101319      -2.68206100
N        3.32509537       5.68340367      -3.07921856
C        2.45973876       5.39149651      -4.06156329
C        2.60040384       4.00464000      -4.55341811
C        1.69460148       6.42813715      -4.73003840
C        2.11456854       6.80011992      -6.13749166
O        2.97745599       6.21364939      -6.79123658
N        1.46299953       7.84257214      -6.73862934
H        1.79921660       8.06388645      -7.66312305
C        0.40176877       8.52934034      -6.16713978
C       -0.19625720       9.57048079      -6.88359720
C       -1.27407538      10.25972925      -6.33187853
C       -1.74281636       9.89994434      -5.07147327
Br      -3.20703495      10.83187564      -4.31917015
C       -1.14278255       8.86004617      -4.35792832
C       -0.05359997       8.15670897      -4.90044116
C        0.62553351       7.05178869      -4.16132530
C        0.14245054       6.61340365      -2.82102231
C       -0.85171285       5.63038063      -2.71999658
C       -1.37168602       5.27905765      -1.47233888
C       -0.90152641       5.90621334      -0.31847871
C        0.09701290       6.87568915      -0.40989147
C        0.61713492       7.22890195      -1.65653574
H        1.30636543      -0.68975531      -2.30431073
H        2.72740860       0.73884827      -3.73190536
H        2.05833821       4.06451601      -1.09128605
H        0.63928110       2.64885710       0.34835824
H        1.64182303       3.52103824      -4.76607497
H        3.20850532       3.98285542      -5.46472962
H        0.17193029       9.84862242      -7.86659333
H       -1.73644005      11.07003468      -6.88758063
H       -1.52418722       8.60291490      -3.37282382
H       -1.21064949       5.12971459      -3.61436597
H       -2.12907176       4.50448492      -1.40230254
H       -1.29395961       5.62255347       0.65324078
H        0.49170856       7.34349113       0.48718841
H        1.41880557       7.96030603      -1.72307326
C       -0.88268443      -0.88268443      -0.88268443
C       -0.85958533      -0.71821780      -2.26668117
C       -1.66517546      -1.52607105      -3.07313716
C       -2.50152689      -2.49909106      -2.50195610
C       -2.50188425      -2.65026555      -1.10799350
C       -1.69966155      -1.84610605      -0.29798174
C       -3.35649141      -3.38759045      -3.39645745
H       -3.71304128      -2.77753003      -4.23613763
O       -4.53238366      -3.87408747      -2.71521698
N       -4.34794114      -5.28096255      -2.45881392
C       -3.20395210      -5.66353235      -3.04531411
C       -2.62903875      -4.61505666      -3.91436656
C       -2.77200796      -7.04922799      -3.03154108
C       -2.89954358      -7.82720297      -4.32543357
O       -3.23341153      -7.34219801      -5.40673243
N       -2.58755105      -9.15930177      -4.29734819
H       -2.71460807      -9.63356445      -5.17805358
C       -2.09868341      -9.81986214      -3.17970334
C       -1.80094448     -11.18270753      -3.27416878
C       -1.29315815     -11.85802057      -2.16635368
C       -1.08739847     -11.16370016      -0.97750263
Br      -0.39655403     -12.07613665       0.52867984
C       -1.38658516      -9.80256165      -0.88604512
C       -1.90111692      -9.10810011      -1.99433313
C       -2.24998640      -7.65806888      -1.93059221
C       -2.02199054      -6.86685798      -0.68802796
C       -0.78541888      -6.24403221      -0.46921326
C       -0.53490893      -5.57641214       0.73161056
C       -1.51761604      -5.52584479       1.72029519
C       -2.75517402      -6.13176123       1.50434174
C       -3.00685906      -6.80057692       0.30486337
H       -0.22224938       0.02932164      -2.72799311
H       -1.64454250      -1.40096359      -4.15265614
H       -3.13798553      -3.41529920      -0.66085555
H       -1.72599592      -1.99086817       0.77708413
H       -1.53897198      -4.54468121      -3.84528305
H       -2.89827558      -4.79693934      -4.96087544
H       -1.96270129     -11.72134778      -4.20309698
H       -1.06463560     -12.91708349      -2.23945616
H       -1.22239862      -9.28503370       0.05588083
H       -0.02260456      -6.26902788      -1.24179863
H        0.41946201      -5.08235196       0.88517425
H       -1.32937563      -4.99366392       2.64768646
H       -3.53659750      -6.06713888       2.25572510
H       -3.98331570      -7.24335299       0.12448384
C       -0.88268443       0.88268443       0.88268443
C       -2.26981220       0.76831312       0.80635898
C       -3.07613238       1.57399344       1.61425786
C       -2.50209729       2.50135005       2.49912671
C       -1.10440302       2.59281927       2.56292100
C       -0.29453331       1.79093248       1.75828354
C       -3.39448835       3.35608565       3.38996531
H       -4.28905110       3.62412638       2.81353146
O       -2.76045584       4.59789279       3.76333947
N       -2.41105037       4.51676310       5.15990414
C       -2.90174096       3.36641388       5.64464372
C       -3.79325908       2.67738081       4.68782208
C       -2.77990551       3.02314992       7.04972160
C       -4.03140365       3.12283065       7.89794583
O       -5.15795811       3.36189896       7.46248489
N       -3.90591924       2.89658013       9.24170164
H       -4.76351440       3.00108770       9.76162400
C       -2.72321053       2.51614239       9.85889597
C       -2.71891358       2.29882531      11.24008189
C       -1.54395586       1.89988076      11.87369578
C       -0.38734024       1.72131549      11.11994553
Br       1.20982268       1.17809768      11.97573584
C       -0.39462422       1.94000503       9.74056269
C       -1.57159545       2.34445016       9.08750455
C       -1.61479830       2.60548047       7.61836873
C       -0.40896021       2.40187497       6.76604131
C       -0.15044609       1.14387275       6.20434551
C        1.02245005       0.92308556       5.47907501
C        1.94335366       1.95699001       5.30952929
C        1.68663784       3.21508964       5.85414171
C        0.51507912       3.43720093       6.58045081
H       -2.73355856       0.05972355       0.12763873
H       -4.15774450       1.48237546       1.55804227
H       -0.65367652       3.30043738       3.26002637
H        0.78343892       1.88919393       1.83402494
H       -3.66067215       1.59097362       4.67729047
H       -4.84204045       2.89562252       4.91842739
H       -3.62294263       2.43908821      11.82511521
H       -1.54048896       1.73386129      12.94682500
H        0.52374366       1.79939781       9.17589734
H       -0.87123404       0.34012860       6.32206842
H        1.20592572      -0.04955545       5.03319687
H        2.84787919       1.79065269       4.73257959
H        2.38282012       4.03366450       5.69716691
H        0.30050479       4.42708149       6.97560816
C        0.88268443      -0.88268443       0.88268443
C        0.56715090      -2.23046482       1.04686858
C        1.37487955      -3.03718565       1.85231847
C        2.49907719      -2.50165272       2.50184414
C        2.79980245      -1.14488898       2.31545186
C        1.99651580      -0.33474546       1.51248808
C        3.38282690      -3.39971895       3.35799346
H        2.73325773      -4.11479697       3.87865424
O        4.08050088      -2.65925385       4.38193337
N        5.47377427      -2.59824199       4.01570135
C        5.64766376      -3.34795400       2.91718080
C        4.44858543      -4.13970714       2.57016939
C        6.96342671      -3.55062462       2.33872569
C        7.60584583      -4.90828252       2.53805176
O        7.05061002      -5.87947091       3.05226104
N        8.88494481      -5.07724485       2.08201136
H        9.27260118      -5.99022399       2.26340093
C        9.59838634      -4.10849919       1.39136337
C       10.89623649      -4.40056933       0.96101497
C       11.62085201      -3.44538024       0.25130016
C       11.03998458      -2.21007421      -0.02145754
Br      12.01947342      -0.91075309      -0.98621567
C        9.74366820      -1.92102266       0.41050107
C        9.00093472      -2.87360547       1.12900996
C        7.61997936      -2.59563552       1.62303261
C        6.94664854      -1.29791905       1.33230890
C        6.20491573      -1.14038734       0.15336129
C        5.64622332       0.09860314      -0.16790966
C        5.82388425       1.18698819       0.68626959
C        6.54936695       1.03445238       1.86767894
C        7.10952873      -0.20322910       2.18981479
H       -0.29834259      -2.66352073       0.55574270
H        1.13157740      -4.08912831       1.97745652
H        3.68086286      -0.72808784       2.80518958
H        2.25942046       0.71102252       1.39138202
H        4.25348674      -4.18146037       1.49398913
H        4.54714430      -5.16507852       2.94386754
H       11.34640072      -5.36521516       1.17553016
H       12.62978877      -3.67173507      -0.08034859
H        9.31544820      -0.94639765       0.18970564
H        6.05238612      -1.98855302      -0.50750808
H        5.05890722       0.20670916      -1.07448236
H        5.37668966       2.14644948       0.44511291
H        6.66277205       1.86856604       2.55380527
H        7.64603430      -0.32912318       3.12702739
