165
Properties=species:S:1:pos:R:3 pbc="F F F"
C        0.00000000       0.00000000       0.00000000
C        0.88235713       0.88235713      -0.88235713
C        1.23658333       2.15435485      -0.43929287
C        2.03866295       2.95911575      -1.24224345
C        2.49786409       2.47997846      -2.47268129
C        2.14719891       1.19609727      -2.92632124
C        1.31229780       0.40821415      -2.12531832
C        2.58727948       0.74413620      -4.28676154
N        2.78602056      -0.46081418      -4.72856286
N        2.75380957      -1.56032447      -3.94145913
C        2.69259511      -2.80540456      -4.54267554
O        2.62334485      -3.06108760      -5.74337353
C        2.66789218      -3.96970202      -3.54921963
O        2.77054817      -3.74439085      -2.35126834
N        2.50087027      -5.17987730      -4.20011425
N        2.39632034      -6.34776937      -3.51745128
C        2.23441298      -7.45860383      -4.18239641
C        2.18151153      -7.53230747      -5.69643575
C        2.11378187      -8.72777721      -3.39923550
C        1.38458959      -9.82449154      -3.87449706
C        1.29811833     -10.99189621      -3.11074588
C        1.92874712     -11.06508304      -1.86867954
C        2.63960421      -9.96646589      -1.38936192
Br       3.48463884     -10.06239765       0.29925939
C        2.73439325      -8.79897177      -2.14288460
C        2.77691717       1.82714762      -5.33907452
H        0.88619685       2.52960229       0.51916128
H        2.30500790       3.96192864      -0.91435429
H        3.12657643       3.13962277      -3.06487331
H        0.95821060      -0.55875511      -2.46801288
H        2.86641230      -1.50301989      -2.93160938
H        2.42034060      -5.14575093      -5.21795032
H        1.28400657      -7.01929328      -6.05356455
H        2.17698978      -8.55665582      -6.06982938
H        3.06822369      -7.04563593      -6.11378003
H        0.85768321      -9.78708681      -4.82333972
H        0.73145441     -11.84354082      -3.48063562
H        1.85420614     -11.97603860      -1.28006726
H        3.28707071      -7.94483025      -1.75925400
H        3.61485806       2.47764169      -5.07727698
H        1.85896635       2.41262588      -5.44007483
H        3.00458619       1.37497692      -6.31039484
C       -0.88235713      -0.88235713      -0.88235713
C       -0.30197857      -1.91886397      -1.60938852
C       -1.10396217      -2.72196654      -2.41409343
C       -2.48255665      -2.49691447      -2.47105272
C       -3.07695359      -1.45442830      -1.73823553
C       -2.25570129      -0.63181796      -0.95831101
C       -4.54514812      -1.18726326      -1.88576584
N       -5.36958579      -0.63852544      -1.04565800
N       -5.03955953      -0.32289253       0.22750783
C       -5.88261500       0.50743913       0.94530978
O       -6.91531447       1.05123576       0.55844794
C       -5.40596738       0.78542222       2.37313536
O       -4.40077292       0.22953750       2.79380976
N       -6.22854630       1.70116288       3.00627620
N       -5.97050639       2.14083613       4.26366800
C       -6.77698585       3.00894244       4.80983786
C       -8.02029817       3.54693673       4.12772162
C       -6.45920614       3.47999775       6.19396823
C       -6.83295614       4.75080209       6.64755893
C       -6.51669447       5.15077251       7.94895397
C       -5.81912170       4.29016537       8.79661271
C       -5.43265479       3.03231136       8.33784319
Br      -4.47729042       1.87072429       9.48358432
C       -5.74446182       2.62234946       7.04380627
C       -5.17406321      -1.54415700      -3.22491911
H        0.76898689      -2.10115709      -1.56446767
H       -0.65783099      -3.52199707      -3.00146278
H       -3.07182665      -3.15154759      -3.10769827
H       -2.66103539       0.22772594      -0.43415892
H       -4.24492566      -0.74928740       0.69921126
H       -7.01742728       2.05968922       2.46519807
H       -7.72792880       4.14779699       3.26185396
H       -8.63609525       4.15556872       4.79036319
H       -8.64192164       2.70993105       3.79562281
H       -7.34978388       5.45429303       6.00155473
H       -6.80741014       6.13819883       8.30066211
H       -5.57500386       4.61032084       9.80644822
H       -5.43496399       1.64107194       6.69239759
H       -5.16353412      -2.62557072      -3.38067188
H       -4.63906298      -1.03890892      -4.03369516
H       -6.22003859      -1.22001801      -3.24990136
C       -0.88235713       0.88235713       0.88235713
C       -0.71496252       0.85061907       2.26464946
C       -1.51854676       1.65238317       3.06909221
C       -2.46949390       2.49505272       2.48597722
C       -2.64316869       2.53522227       1.09122647
C       -1.85227804       1.69951470       0.29403752
C       -3.72786508       3.38734815       0.50296400
N       -3.80042909       3.92864690      -0.67530676
N       -2.78299566       3.91844433      -1.56649575
C       -3.04825533       4.26221824      -2.88060747
O       -4.13350474       4.55253083      -3.38040480
C       -1.81759916       4.21972163      -3.78991101
O       -0.72055750       3.96779678      -3.31092862
N       -2.15990098       4.46898697      -5.10778073
N       -1.23842720       4.43051260      -6.10293756
C       -1.61821058       4.66830530      -7.32831033
C       -3.04289583       5.01718768      -7.71444369
C       -0.57914824       4.60937706      -8.40328514
C       -0.89652283       4.25936408      -9.72129180
C        0.10518218       4.21732418     -10.69517401
C        1.42536535       4.51357851     -10.35586954
C        1.74242664       4.84483009      -9.03990322
Br       3.53387895       5.23522124      -8.57836048
C        0.75204300       4.89212803      -8.06177894
C       -4.96058988       3.61713057       1.36541887
H        0.02673102       0.20073169       2.72263719
H       -1.40942515       1.62056969       4.15129599
H       -3.07149463       3.10830828       3.15126959
H       -2.00206349       1.64487846      -0.77947357
H       -1.81933970       3.75728273      -1.28162063
H       -3.14789809       4.64423191      -5.29959002
H       -3.69063458       4.15580828      -7.52816502
H       -3.13722457       5.31263236      -8.75969357
H       -3.38391152       5.86484311      -7.11238685
H       -1.90938061       3.99401948     -10.00946396
H       -0.14214037       3.94534159     -11.71893276
H        2.19864032       4.47595574     -11.11908063
H        1.00893683       5.14688814      -7.03645686
H       -4.71023381       4.21351399       2.24602893
H       -5.38842237       2.65690800       1.66633670
H       -5.71949532       4.16954225       0.80092038
C        0.88235713      -0.88235713       0.88235713
C        1.74141563      -0.28636482       1.80245061
C        2.54619908      -1.08849633       2.60532674
C        2.47238843      -2.48039860       2.49773682
C        1.60593689      -3.09028489       1.57339564
C        0.82560171      -2.27275240       0.74747616
C        1.61118281      -4.58244896       1.42454544
N        0.66286395      -5.37172734       1.01917794
N       -0.60238026      -4.95814443       0.77918006
C       -1.45535496      -5.79920752       0.08601353
O       -1.20166606      -6.90207805      -0.39478122
C       -2.85910259      -5.22350345      -0.11699107
O       -3.14751775      -4.14401872       0.38092468
N       -3.63383214      -6.05848999      -0.90355063
N       -4.90003171      -5.72772371      -1.26168975
C       -5.58295022      -6.55049792      -2.00934214
C       -5.05249901      -7.88782317      -2.48968434
C       -6.97293738      -6.15186104      -2.39368350
C       -7.56436470      -6.58538969      -3.58642988
C       -8.86611243      -6.18978029      -3.90669986
C       -9.57657460      -5.35396852      -3.04505030
C       -8.98011531      -4.90930524      -1.86668970
Br      -9.93955606      -3.76731082      -0.70477295
C       -7.68444304      -5.29904627      -1.53629714
C        2.92155149      -5.29526068       1.72632715
H        1.79874039       0.79559665       1.89349413
H        3.23514131      -0.63259044       3.31355908
H        3.11440992      -3.06855889       3.14810370
H        0.19750656      -2.69845176      -0.02848994
H       -0.96968583      -4.09367255       1.17101508
H       -3.19125050      -6.91786077      -1.23407028
H       -4.22176774      -7.72142009      -3.18137450
H       -5.81308401      -8.49024985      -2.98700249
H       -4.69953680      -8.46685547      -1.63095089
H       -7.02589084      -7.21149839      -4.29167142
H       -9.32495083      -6.52700661      -4.83350658
H      -10.58764295      -5.04905700      -3.30317925
H       -7.22493094      -4.94363810      -0.61721270
H        3.17153091      -5.21157337       2.78667244
H        3.72343199      -4.87527519       1.11295987
H        2.83404290      -6.36205726       1.49385780
