194
Properties=species:S:1:pos:R:3 pbc="F F F"
C        1.79226115       1.79226115      -1.79226115
C        2.14648736       3.06425888      -1.34919689
C        2.94856697       3.86901978      -2.15214747
C        3.40776812       3.38988248      -3.38258532
C        3.05710293       2.10600130      -3.83622527
C        2.22220182       1.31811818      -3.03522234
C        3.49718351       1.65404023      -5.19666556
N        3.69592458       0.44908984      -5.63846688
N        3.66371360      -0.65042045      -4.85136315
C        3.60249913      -1.89550054      -5.45257957
O        3.53324888      -2.15118358      -6.65327755
C        3.57779621      -3.05979800      -4.45912365
O        3.68045219      -2.83448682      -3.26117236
N        3.41077429      -4.26997328      -5.11001828
N        3.30622437      -5.43786535      -4.42735530
C        3.14431700      -6.54869980      -5.09230043
C        3.09141556      -6.62240344      -6.60633978
C        3.02368589      -7.81787318      -4.30913952
C        2.29449361      -8.91458752      -4.78440109
C        2.20802235     -10.08199219      -4.02064990
C        2.83865114     -10.15517902      -2.77858357
C        3.54950824      -9.05656187      -2.29926594
C        3.64429728      -7.88906775      -3.05278863
C        3.68682120       2.73705164      -6.24897855
H        1.79610088       3.43950632      -0.39074275
H        3.21491193       4.87183267      -1.82425831
H        4.03648045       4.04952679      -3.97477733
H        1.86811463       0.35114892      -3.37791691
H        3.77631633      -0.59311586      -3.84151341
H        3.33024463      -4.23584691      -6.12785434
H        2.19391059      -6.10938925      -6.96346858
H        3.08689381      -7.64675179      -6.97973341
H        3.97812771      -6.13573191      -7.02368405
H        1.76758723      -8.87718278      -5.73324375
H        1.64135844     -10.93363680      -4.39053964
H        2.76411016     -11.06613457      -2.18997128
H        4.19697473      -7.03492623      -2.66915803
H        4.52476208       3.38754572      -5.98718100
H        2.76887037       3.32252990      -6.34997886
H        3.91449022       2.28488095      -7.22029887
C        4.19310741      -9.12962585      -1.01317039
C        4.73212172      -9.19081694       0.06393463
Br       5.60366226      -9.28975775       1.80552235
C       -1.79226115      -1.79226115      -1.79226115
C       -2.41472514      -2.90780631      -1.23741168
C       -3.21713010      -3.71264732      -2.03995680
C       -3.40837233      -3.38609615      -3.38576744
C       -2.78587229      -2.26022566      -3.95323154
C       -1.95400894      -1.47687381      -3.14465959
C       -2.94440907      -1.98474127      -5.41873895
N       -2.87271880      -0.85518737      -6.05557514
N       -2.76946182       0.34473282      -5.43992730
C       -2.41465681       1.44943934      -6.19436069
O       -2.13224024       1.48735520      -7.39045781
C       -2.33739985       2.74826319      -5.38798521
O       -2.64690725       2.74429367      -4.20452415
N       -1.87813979       3.79543337      -6.16811287
N       -1.67789112       5.03415881      -5.65198201
C       -1.23828259       5.98281056      -6.43244559
C       -0.95748450       5.79297644      -7.91084384
C       -1.01974063       7.33488749      -5.83009909
C       -0.05636417       8.22036519      -6.32830820
C        0.11455679       9.47481570      -5.73605256
C       -0.66612277       9.84500431      -4.64093723
C       -1.61251624       8.95572573      -4.13542180
C       -1.79302983       7.70409612      -4.71908445
C       -3.16046204      -3.19054158      -6.32184777
H       -2.27322543      -3.16309952      -0.19002498
H       -3.69219928      -4.59756105      -1.62124257
H       -4.04750703      -4.03884782      -3.97442973
H       -1.39725645      -0.64197125      -3.55795275
H       -3.03353099       0.47447901      -4.46566189
H       -1.65955694       3.57976239      -7.14245750
H       -0.11706912       5.10412565      -8.03504645
H       -0.72765368       6.72875275      -8.42097449
H       -1.84426539       5.37523275      -8.39704721
H        0.58716260       7.94915127      -7.15996207
H        0.86318305      10.16222750      -6.12367183
H       -0.52480332      10.82163631      -4.18477986
H       -2.53040133       7.01455245      -4.31535764
H       -4.12443410      -3.66105469      -6.11400001
H       -2.34894916      -3.91000505      -6.18242492
H       -3.16751404      -2.87995535      -7.37220065
C       -2.41217264       9.33504273      -2.99952205
C       -3.08188487       9.65272073      -2.04820600
Br      -4.16475291      10.16637917      -0.51000842
C       -1.79226115       1.79226115       1.79226115
C       -2.38464535       1.24671682       2.92858096
C       -3.18924504       2.04858300       3.73190618
C       -3.37991436       3.39457087       3.40575069
C       -2.78343378       3.95398589       2.26190982
C       -2.00334102       3.12939878       1.44280254
C       -3.07492993       5.37836250       1.89459687
N       -2.35284917       6.21639611       1.21423602
N       -1.08481602       5.96107023       0.81877005
C       -0.50774418       6.78426157      -0.13242759
O       -1.02171933       7.73399597      -0.72037246
C        0.92925266       6.39851981      -0.49214528
O        1.47543257       5.47976448       0.10280582
N        1.41730146       7.18755323      -1.51943248
N        2.65391466       6.99202035      -2.04239137
C        3.06064168       7.76231208      -3.01375278
C        2.23601586       8.89874892      -3.58738116
C        4.42575862       7.51465703      -3.57394617
C        4.74572977       7.81382956      -4.90379260
C        6.03407016       7.56724613      -5.38649591
C        7.00213722       7.01310324      -4.54891033
C        6.67708773       6.69979974      -3.23049970
C        5.39721176       6.94337610      -2.73814618
C       -4.43056767       5.92894229       2.31334143
H       -2.23527460       0.20176502       3.18931031
H       -3.67266799       1.62728455       4.61105036
H       -4.01115307       3.98567578       4.06395573
H       -1.58390384       3.50021363       0.51306298
H       -0.51583632       5.24450738       1.26437017
H        0.78518135       7.89873403      -1.89130062
H        1.35379301       8.49005569      -4.08827276
H        2.79478008       9.51063468      -4.29597918
H        1.91877839       9.56113979      -2.77628155
H        4.00550262       8.21742099      -5.58827018
H        6.28193350       7.79995506      -6.41976028
H        8.00097074       6.82221671      -4.93329910
H        5.15075475       6.69151304      -1.70955176
H       -4.50014050       5.99777574       3.40157256
H       -5.22811480       5.29175887       1.92150546
H       -4.56907099       6.93863087       1.91196817
C        7.67437288       6.11978146      -2.36875663
C        8.50959919       5.63401615      -1.64704681
Br       9.86008950       4.84857473      -0.48010306
C        1.79226115      -1.79226115       1.79226115
C        2.22112991      -1.31169030       3.02712293
C        3.02557167      -2.11345393       3.83070861
C        3.37903191      -3.39702477       3.40417924
C        2.94817869      -3.89095782       2.16019298
C        2.16717783      -3.06287095       1.34549356
C        3.41313756      -5.23889721       1.69585453
N        2.84358221      -6.06675426       0.87314483
N        1.59762070      -5.88953930       0.37749631
C        1.19489785      -6.66235780      -0.69767749
O        1.85280646      -7.49767096      -1.31513458
C       -0.23479298      -6.37488415      -1.16296930
O       -0.92214347      -5.57389752      -0.54461632
N       -0.54581071      -7.09813419      -2.30150419
N       -1.74304882      -6.96452823      -2.92576509
C       -1.98046008      -7.66741277      -3.99903506
C       -0.99735492      -8.66087662      -4.58816981
C       -3.30685377      -7.49012682      -4.66832082
C       -3.47289228      -7.68241330      -6.04521384
C       -4.73015989      -7.50696714      -6.63012719
C       -5.82106024      -7.12993959      -5.84682367
C       -5.65036541      -6.92204421      -4.47946650
C       -4.40266377      -7.09624815      -3.88556622
C        4.77336335      -5.70300980       2.19647823
H        1.94470523      -0.31607161       3.36557309
H        3.38233327      -1.74013196       4.78853767
H        4.00379541      -3.99120100       4.06578816
H        1.87335878      -3.37528181       0.34853986
H        0.92153012      -5.27599438       0.82718938
H        0.18559060      -7.70798890      -2.67132744
H       -0.11862191      -8.12547638      -4.95886456
H       -1.42518692      -9.24697636      -5.40191403
H       -0.69047316      -9.36957569      -3.81302268
H       -2.63675253      -7.94634873      -6.68594800
H       -4.85840166      -7.65655730      -7.69989436
H       -6.79485066      -6.99318468      -6.31038716
H       -4.27730965      -6.92734017      -2.81882400
H        4.75016777      -5.87391852       3.27540251
H        5.53538171      -4.95985449       1.94614293
H        5.04828536      -6.65058631       1.72079836
C       -6.77500591      -6.52445869      -3.67280083
C       -7.71689233      -6.19148081      -2.99721834
Br      -9.23984300      -5.65308375      -1.90485858
C       -0.00445707       0.01189536      -1.78238275
H       -0.66409135       0.67374010      -2.43557963
H        0.65740317      -0.63156657      -2.45157240
C       -0.90989263      -0.90692880      -0.91072765
C        0.90977584       0.90977584      -0.90977584
C       -0.00465871       1.77757030       0.00794375
H       -0.66225468       2.44313916      -0.64384735
H        0.64322798       2.43503045       0.67728295
C       -1.78241447       0.00034974      -0.00472694
H       -2.45427497      -0.65498947       0.64260836
H       -2.43311707       0.67328779      -0.65473579
C       -0.91132561       0.90220522       0.91563759
C       -0.01476271      -0.02253852       1.78660255
H       -0.67934791      -0.69751639       2.42135241
H        0.63392994       0.61504881       2.47327442
C        0.01484550      -1.77751727      -0.01636693
H        0.67870853      -2.42144646      -0.68295456
H       -0.62264859      -2.45592969       0.64226336
C        1.78714474       0.01002794       0.00389507
H        2.44202412       0.67113390       0.66197326
H        2.45385902      -0.65136977      -0.64189061
C        0.91606151      -0.90478549       0.90901405
