165
Properties=species:S:1:pos:R:3 pbc="F F F"
C        0.00000000       0.00000000       0.00000000
O        5.93016880       2.33829149      -7.77003966
C        7.09633819       2.71561348      -7.78009889
C        7.54890834       3.98313578      -7.06705634
C        6.43498225       4.70619095      -6.31048367
C        5.98012603       3.95674878      -5.05506520
C        4.96059368       4.77416645      -4.26723870
C        4.44163779       3.97539836      -3.08578430
O        5.07858695       3.93253985      -2.03785490
N        3.24666119       3.33371916      -3.35805929
C        2.49882025       2.51039650      -2.49172091
C        2.93667403       2.10465290      -1.22904672
C        2.13133016       1.28927024      -0.42513524
C        0.88133576       0.88133576      -0.88133576
C        0.43184192       1.27400972      -2.13842998
C        1.24262969       2.08130972      -2.94253507
N        8.15741467       2.09763782      -8.42354107
C        8.14951189       0.86095203      -9.09956933
C        7.05791447      -0.00987791      -9.11848545
C        7.13893633      -1.23642267      -9.78822911
C        8.31276481      -1.59270532     -10.44588078
Br       8.42296708      -3.25110646     -11.34457059
C        9.40803742      -0.73413666     -10.43960294
C        9.32576387       0.48771652      -9.76446695
H        7.94846537       4.66233913      -7.83033047
H        8.36607063       3.73011098      -6.38128310
H        5.57679902       4.87228318      -6.97281326
H        6.80731958       5.69545049      -6.01679264
H        6.84523144       3.74143425      -4.41543055
H        5.54453153       2.98776356      -5.32348655
H        4.12696969       5.07838357      -4.91091399
H        5.41228484       5.69615984      -3.88267359
H        2.83951197       3.49846198      -4.27037612
H        3.90752402       2.39688302      -0.84065237
H        2.49437359       0.98275222       0.55247207
H       -0.54344374       0.96122743      -2.50146853
H        0.87033062       2.37807083      -3.91984261
H        9.03657226       2.59994933      -8.43042973
H        6.12972736       0.22735277      -8.60779432
H        6.28006666      -1.90249210      -9.78309477
H       10.32776019      -1.00469900     -10.95172201
H       10.19424225       1.14132107      -9.77126431
O       -6.71857311      -2.16614279      -7.15378404
C       -7.80820605      -2.72021525      -7.06362926
C       -7.96216297      -4.12968485      -6.50725265
C       -6.65280298      -4.76223631      -6.03661758
C       -6.11033955      -4.12952090      -4.75207956
C       -4.87526943      -4.87371474      -4.25301466
C       -4.28876983      -4.17235411      -3.04169651
O       -4.74956520      -4.37650774      -1.92290876
N       -3.25251662      -3.31643946      -3.36948356
C       -2.49609212      -2.51111217      -2.49373337
C       -2.77781216      -2.35822059      -1.13434090
C       -1.97407807      -1.54286697      -0.32879059
C       -0.88133576      -0.88133576      -0.88133576
C       -0.58914210      -1.02035649      -2.23478303
C       -1.39934003      -1.82865403      -3.03848042
N       -9.03335075      -2.19747737      -7.44776544
C       -9.30388510      -0.89440311      -7.91174504
C       -8.35964991       0.13411633      -7.94098844
C       -8.71470637       1.41218246      -8.38821886
C      -10.01635019       1.66302913      -8.81261921
Br     -10.49595902       3.39004324      -9.41051542
C      -10.96788659       0.64764476      -8.79326187
C      -10.61138885      -0.62637666      -8.34018183
H       -8.38147069      -4.75257316      -7.30709112
H       -8.68597429      -4.10744070      -5.68404972
H       -5.89709753      -4.69616435      -6.82863358
H       -6.83371193      -5.82919853      -5.85665225
H       -6.88321243      -4.14546558      -3.97341823
H       -5.86076547      -3.07572818      -4.91928798
H       -4.12158983      -4.94915348      -5.04552394
H       -5.12845289      -5.90012190      -3.96254348
H       -2.97788262      -3.28685176      -4.34361569
H       -3.62445828      -2.85265458      -0.66794654
H       -2.21464755      -1.43579186       0.72578568
H        0.26307132      -0.50861015      -2.67371338
H       -1.15101711      -1.92475190      -4.09247506
H       -9.82473795      -2.82822891      -7.41398445
H       -7.33800792      -0.01946021      -7.60740632
H       -7.96595119       2.19999932      -8.39471746
H      -11.98606714       0.83535346      -9.12406952
H      -11.37151671      -1.40331833      -8.33199258
O       -2.56781975       8.09267474       5.37800546
C       -2.83162259       8.18932079       6.57110718
C       -3.96845780       7.41061940       7.22002325
C       -4.71053958       6.47595301       6.26516428
C       -3.87995248       5.25658789       5.85539963
C       -4.70319531       4.29193743       5.00686609
C       -3.83763967       3.14374110       4.52143968
O       -3.62460506       2.17737211       5.24700453
N       -3.34454602       3.34866672       3.24522689
C       -2.50953386       2.49069288       2.50071091
C       -1.93362120       1.32529491       3.01145753
C       -1.11849026       0.52232255       2.20492283
C       -0.88133576       0.88133576       0.88133576
C       -1.44482992       2.04122845       0.35822325
C       -2.25146294       2.84573221       1.16927933
N       -2.18669438       8.99646308       7.49543610
C       -1.03425770       9.78231539       7.29346015
C       -0.27788347       9.76906508       6.11957346
C        0.87362150      10.55707618       6.00728808
C        1.26871217      11.36527390       7.06937855
Br       2.82643599      12.42400998       6.91885721
C        0.52349679      11.39258589       8.24441461
C       -0.62291621      10.59955095       8.35548017
H       -4.68305745       8.14366353       7.61441399
H       -3.56830943       6.84165353       8.06750175
H       -5.02606511       7.02565908       5.37017128
H       -5.62359981       6.13037678       6.76558612
H       -3.51742795       4.73475080       6.74991749
H       -2.99031574       5.56857699       5.29688891
H       -5.15116032       4.81263751       4.15246942
H       -5.53258180       3.87113047       5.58740600
H       -3.64215912       4.19335790       2.77283305
H       -2.08987758       1.01506510       4.04011672
H       -0.67786080      -0.37816811       2.62496105
H       -1.26598578       2.32784425      -0.67457781
H       -2.68328153       3.74588043       0.73908210
H       -2.60115609       9.04794176       8.41785347
H       -0.54723063       9.14346424       5.27417957
H        1.45193289      10.52502079       5.08758144
H        0.82488553      12.02187702       9.07779171
H       -1.18815043      10.63544619       9.28323100
O        2.16107697      -7.09092434       6.78649864
C        2.73129785      -6.99360551       7.86714720
C        4.15019413      -6.45467570       7.99423063
C        4.77097260      -6.01066225       6.67002202
C        4.14836811      -4.72501888       6.11855301
C        4.88217918      -4.25310997       4.86670968
C        4.18933914      -3.04032511       4.27315621
O        4.41502703      -1.91829461       4.71566005
N        3.31483643      -3.37034311       3.25326010
C        2.51114143      -2.49394094       2.49585528
C        2.38065446      -1.12886306       2.76085613
C        1.56532773      -0.32315286       1.95725504
C        0.88133576      -0.88133576       0.88133576
C        0.99789093      -2.24042074       0.60596995
C        1.80627725      -3.04409314       1.41610410
N        2.22032762      -7.35379616       9.10446978
C        0.91491727      -7.79603939       9.39907659
C       -0.12682800      -7.82393787       8.46941214
C       -1.40584152      -8.24863022       8.84795406
C       -1.64446430      -8.65178630      10.15861828
Br      -3.37267342      -9.21923096      10.66987366
C       -0.61588543      -8.63349157      11.09589756
C        0.65914383      -8.20291452      10.71588898
H        4.76786813      -7.25725015       8.41601669
H        4.14913306      -5.62147489       8.70685676
H        4.68371854      -6.81189794       5.92627900
H        5.84267734      -5.84298331       6.83390206
H        4.18555939      -3.93621059       6.88032626
H        3.08905704      -4.88105893       5.88566567
H        4.93643050      -5.05676271       4.12307404
H        5.91583629      -3.97340354       5.10187844
H        3.26821655      -4.34762015       2.99251337
H        2.89301503      -0.65785804       3.59418634
H        1.47593492       0.73597444       2.18469326
H        0.46851806      -2.68380390      -0.23306975
H        1.88459586      -4.10259301       1.18105519
H        2.86233357      -7.31795481       9.88666293
H        0.01716879      -7.50643293       7.44127272
H       -2.20392431      -8.25444847       8.11014518
H       -0.79401798      -8.94779896      12.12100222
H        1.44653330      -8.19510129      11.46519304
