173
Properties=species:S:1:pos:R:3 pbc="F F F"
C        0.00000000       0.00000000       0.00000000
O        5.93016880       2.33829149      -7.77003966
C        7.09633819       2.71561348      -7.78009889
C        7.54890834       3.98313578      -7.06705634
C        6.43498225       4.70619095      -6.31048367
C        5.98012603       3.95674878      -5.05506520
C        4.96059368       4.77416645      -4.26723870
C        4.44163779       3.97539836      -3.08578430
O        5.07858695       3.93253985      -2.03785490
N        3.24666119       3.33371916      -3.35805929
C        2.49882025       2.51039650      -2.49172091
C        2.93667403       2.10465290      -1.22904672
C        2.13133016       1.28927024      -0.42513524
C        0.88133576       0.88133576      -0.88133576
C        0.43184192       1.27400972      -2.13842998
C        1.24262969       2.08130972      -2.94253507
N        8.15741467       2.09763782      -8.42354107
C        8.14951189       0.86095203      -9.09956933
C        7.05791447      -0.00987791      -9.11848545
C        7.13893633      -1.23642267      -9.78822911
C        8.31276481      -1.59270532     -10.44588078
C        9.40803742      -0.73413666     -10.43960294
C        9.32576387       0.48771652      -9.76446695
H        7.94846537       4.66233913      -7.83033047
H        8.36607063       3.73011098      -6.38128310
H        5.57679902       4.87228318      -6.97281326
H        6.80731958       5.69545049      -6.01679264
H        6.84523144       3.74143425      -4.41543055
H        5.54453153       2.98776356      -5.32348655
H        4.12696969       5.07838357      -4.91091399
H        5.41228484       5.69615984      -3.88267359
H        2.83951197       3.49846198      -4.27037612
H        3.90752402       2.39688302      -0.84065237
H        2.49437359       0.98275222       0.55247207
H       -0.54344374       0.96122743      -2.50146853
H        0.87033062       2.37807083      -3.91984261
H        9.03657226       2.59994933      -8.43042973
H        6.12972736       0.22735277      -8.60779432
H        6.28006666      -1.90249210      -9.78309477
H       10.32776019      -1.00469900     -10.95172201
H       10.19424225       1.14132107      -9.77126431
C        8.39675217      -2.85660606     -11.13079029
C        8.46709157      -3.91512294     -11.70440200
Br       8.58082445      -5.62665520     -12.63188363
O       -6.52323303      -2.19001744      -7.32524947
C       -7.63642534      -2.69852738      -7.25709784
C       -7.86657264      -4.07821670      -6.65431112
C       -6.60180985      -4.74083634      -6.10901067
C       -6.08385548      -4.07909565      -4.82898887
C       -4.89873381      -4.84926577      -4.25399925
C       -4.33134320      -4.12352401      -3.04795324
O       -4.84177294      -4.26599032      -1.94121843
N       -3.25060630      -3.32094053      -3.36689281
C       -2.49677150      -2.51099713      -2.49316902
C       -2.82345889      -2.29426525      -1.15264951
C       -2.01933688      -1.47885755      -0.34754121
C       -0.88133576      -0.88133576      -0.88133576
C       -0.54387005      -1.08437980      -2.21603177
C       -1.35423908      -1.89242473      -3.01981067
N       -8.82468348      -2.14534290      -7.70856718
C       -9.02606989      -0.85221125      -8.23175211
C       -8.04171864       0.13793029      -8.26273367
C       -8.32911732       1.40994469      -8.77157014
C       -9.60292238       1.69295250      -9.25597040
C      -10.59367407       0.71581405      -9.23564369
C      -10.30489847      -0.55198628      -8.72106259
H       -8.27949333      -4.71575494      -7.44588669
H       -8.61955568      -3.99629317      -5.86161586
H       -5.81468887      -4.73455550      -6.87265110
H       -6.83117946      -5.79229985      -5.89608340
H       -6.88564372      -4.03519952      -4.08125300
H       -5.78692270      -3.04287679      -5.02598215
H       -4.11917763      -4.98422787      -5.01286174
H       -5.20285469      -5.85315980      -3.93510379
H       -2.93838942      -3.34005807      -4.32990258
H       -3.70590685      -2.73762781      -0.70152474
H       -2.29521114      -1.32140738       0.69196478
H        0.34377887      -0.62286194      -2.64016915
H       -1.07021356      -2.03918427      -4.05884624
H       -9.64095555      -2.74390875      -7.68208701
H       -7.04024309      -0.04093480      -7.88369656
H       -7.55027349       2.16802600      -8.77842185
H      -11.59045701       0.92873868      -9.61306487
H      -11.09473465      -1.29871219      -8.71338078
C       -9.89895136       3.00310010      -9.77508513
C      -10.14687564       4.10034872     -10.20984372
Br     -10.54774822       5.87450693     -10.91281159
O       -2.15907919       7.05641992       6.82300083
C       -2.73804628       6.95536030       7.89864398
C       -4.16180039       6.42609913       8.01120095
C       -4.77595727       5.99653913       6.67916047
C       -4.15879027       4.71040588       6.12274385
C       -4.88671953       4.25325917       4.86202012
C       -4.19846785       3.03976819       4.26458441
O       -4.43574669       1.91620743       4.69702757
N       -3.31396651       3.37079577       3.25367736
C       -2.51115476       2.49405502       2.49572788
C       -2.39275369       1.12611830       2.75150166
C       -1.57744321       0.32032079       1.94797163
C       -0.88133576       0.88133576       0.88133576
C       -0.98577287       2.24325275       0.61525601
C       -1.79420710       3.04691247       1.42535491
N       -2.23366411       7.30256390       9.14236555
C       -0.92724942       7.73286909       9.44991474
C        0.12157651       7.75987904       8.52821949
C        1.40084012       8.17220995       8.91937294
C        1.63266101       8.56386445      10.23473683
C        0.59701506       8.54630320      11.16421555
C       -0.67829713       8.12806908      10.77158113
H       -4.77664539       7.23011313       8.43437645
H       -4.17221923       5.58766230       8.71758317
H       -4.67723272       6.80258441       5.94207835
H       -5.85006575       5.83564732       6.83384964
H       -4.20749726       3.91628060       6.87831838
H       -3.09664639       4.86026256       5.89887269
H       -4.92947546       5.06277565       4.12401613
H       -5.92414312       3.97953477       5.08744038
H       -3.25817230       4.34960104       3.00057673
H       -2.91478525       0.65279208       3.57748208
H       -1.49758966      -0.74109784       2.16816192
H       -0.44689180       2.68887404      -0.21651363
H       -1.86293497       4.10767746       1.19763163
H       -2.88173200       7.26572245       9.91949686
H       -0.01709625       7.45107446       7.49670374
H        2.20442311       8.17753774       8.18755470
H        0.76982064       8.85167836      12.19292549
H       -1.47128786       8.12058159      11.51495817
C        2.94998655       8.98359741      10.63732554
C        4.05324669       9.33512376      10.97449358
Br       5.83712503       9.90351213      11.51966578
O        2.72173933      -8.22874711       5.08801351
C        2.92906798      -8.37589129       6.28709130
C        3.98768890      -7.57620198       7.03520958
C        4.72617732      -6.55479059       6.17068895
C        3.85315892      -5.35915655       5.77962454
C        4.66553837      -4.30942260       5.02703786
C        3.76534511      -3.18247351       4.55500184
O        3.46379909      -2.26872025       5.31646235
N        3.34984168      -3.34330763       3.24529033
C        2.50897012      -2.49026979       2.50169775
C        1.84580459      -1.38500774       3.03956131
C        1.03088916      -0.58246470       2.23238177
C        0.88133576      -0.88133576       0.88133576
C        1.53245234      -1.98107630       0.33075299
C        2.33874475      -2.78582408       1.14190565
N        2.28215839      -9.26352332       7.13291185
C        1.18553185     -10.09520583       6.82929556
C        0.49049920     -10.05742530       5.61859752
C       -0.60966387     -10.89604234       5.40436429
C       -1.01440583     -11.77938138       6.40096472
C       -0.32980283     -11.83181676       7.61148977
C        0.76507412     -10.98838418       7.82448903
H        4.71963974      -8.29195394       7.42954128
H        3.51471492      -7.07487884       7.88787095
H        5.11615215      -7.03867170       5.26707162
H        5.59254756      -6.19046795       6.73654720
H        3.41783956      -4.90544294       6.67881374
H        3.01130661      -5.68566037       5.15881467
H        5.18395169      -4.75979783       4.17251772
H        5.44032206      -3.87866513       5.67213108
H        3.71624788      -4.14502965       2.74707254
H        1.93237629      -1.12303818       4.08964494
H        0.52153123       0.27041585       2.67353836
H        1.42229530      -2.22042787      -0.72347095
H        2.83981666      -3.63826624       0.69016116
H        2.65112644      -9.34335350       8.07247137
H        0.76860613      -9.37427095       4.82199736
H       -1.14112232     -10.84409819       4.45769346
H       -0.63905037     -12.51964105       8.39419253
H        1.28328728     -11.04525878       8.77828157
C       -2.14899776     -12.63851052       6.18142363
C       -3.09921850     -13.35803117       5.99755796
Br      -4.63564506     -14.52143521       5.70026273
