154
Properties=species:S:1:pos:R:3 pbc="F F F"
C        1.79160573       1.79160573      -1.79160573
C        2.85874334       2.48712383      -1.22635571
C        3.66188788       3.29490181      -2.03511723
C        3.41474421       3.39295597      -3.40877081
C        2.32881364       2.70604623      -3.95845069
C        1.51843156       1.90089475      -3.15388101
N        4.20261633       4.21552954      -4.22344655
C        5.34702856       3.79586883      -4.63897591
S        6.14730079       2.27337991      -4.36829805
C        7.57738307       2.76725968      -5.22719420
C        8.76252069       2.13766608      -5.20994399
C       10.03808124       2.76016452      -5.73125146
O       10.23656156       3.89215955      -6.12289261
N       11.01851366       1.80461944      -5.53372799
C       10.51823947       0.68481763      -4.88673358
C       11.24783301      -0.42509738      -4.50493411
C       10.56013720      -1.45564698      -3.86484338
C        9.17952365      -1.34542226      -3.63469910
Br       8.26984629      -2.76765328      -2.77816847
C        8.45976964      -0.20942552      -4.02720634
C        9.14485353       0.82273812      -4.64898252
C        7.24918405       4.03607751      -5.94650145
O        7.77705956       4.45025482      -6.96164433
N        6.11617252       4.58612833      -5.42224450
H        3.07011300       2.41369008      -0.16307802
H        4.48466419       3.84986444      -1.59258219
H        2.11060284       2.80294796      -5.01865351
H        0.67919319       1.37197647      -3.59735861
H       11.98617740       1.97374341      -5.76542224
H       12.31301643      -0.50059631      -4.69319307
H       11.10069067      -2.34566183      -3.55041540
H        7.39324791      -0.16496815      -3.84431279
H        5.73088866       5.42957015      -5.81574385
C       -1.79160573      -1.79160573      -1.79160573
C       -2.97279180      -2.32254612      -1.27688496
C       -3.77588954      -3.13085783      -2.08515955
C       -3.41305680      -3.39255207      -3.41086211
C       -2.21560019      -2.87028605      -3.90742432
C       -1.40521460      -2.06568264      -3.10231008
N       -4.20200288      -4.21755031      -4.22203923
C       -5.25328811      -3.73797831      -4.79060688
S       -5.91418741      -2.12770098      -4.74709035
C       -7.30111607      -2.57182091      -5.69889996
C       -8.41148934      -1.83596422      -5.86267720
C       -9.69015245      -2.38709225      -6.45225252
O       -9.96678730      -3.52992505      -6.75490137
N      -10.58104843      -1.32897853      -6.44683414
C      -10.03063607      -0.20007518      -5.85907943
C      -10.67442068       1.00648710      -5.65973616
C       -9.94695788       2.02880308      -5.05117880
C       -8.61258291       1.81451972      -4.67073731
Br      -7.64513711       3.22629850      -3.86152287
C       -7.98023024       0.58194395      -4.87926417
C       -8.70698192      -0.44032719      -5.46926507
C       -7.03970392      -3.93305813      -6.25900096
O       -7.51039259      -4.39854280      -7.28002332
N       -6.02328948      -4.52948806      -5.57176781
H       -3.27376982      -2.12054993      -0.25256135
H       -4.68915343      -3.55805496      -1.67990244
H       -1.91055231      -3.09584398      -4.92580801
H       -0.47824389      -1.66591037      -3.50437401
H      -11.53511981      -1.43002834      -6.76019490
H      -11.70391471       1.16126093      -5.96295940
H      -10.41990708       2.99301746      -4.87855461
H       -6.94571195       0.45723259      -4.58411320
H       -5.69192484      -5.44123840      -5.84303942
C       -1.79160573       1.79160573       1.79160573
C       -1.66026577       1.73417421       3.17778290
C       -2.47009205       2.54010455       3.98171032
C       -3.39478283       3.41722884       3.40445932
C       -3.53002894       3.44947215       2.01380946
C       -2.72689347       2.64183194       1.20448191
N       -4.22413975       4.21432665       4.20312601
C       -3.76739220       5.30829888       4.70618222
S       -2.19627005       6.04242744       4.55028126
C       -2.59232405       7.33946169       5.64005120
C       -1.71973366       8.19411129       6.19628580
C       -2.07451953       9.10556909       7.34940860
O       -3.09305395       9.14973720       8.00882256
N       -0.91847549       9.81331270       7.62507291
C        0.13641561       9.40132037       6.82488592
C        1.43242914       9.87781043       6.88228846
C        2.35484884       9.33717682       5.98700561
C        1.95379536       8.35210521       5.07049065
Br       3.22447898       7.64854003       3.85630044
C        0.63507155       7.88086932       5.03175269
C       -0.27915528       8.40555314       5.93186576
C       -4.06902670       7.29399663       5.86873968
O       -4.78337910       8.23012558       6.17545402
N       -4.56055429       6.08139052       5.48260054
H       -0.93990438       1.06568928       3.64128744
H       -2.37932514       2.48465573       5.06312996
H       -4.26877005       4.10419564       1.55923861
H       -2.84336491       2.68035651       0.12480685
H       -0.86469385      10.47781343       8.38283577
H        1.72858140      10.64289408       7.59130051
H        3.38435556       9.68801421       6.00178559
H        0.35914692       7.12915487       4.30258461
H       -5.54871650       5.89293377       5.53455239
C        1.79160573      -1.79160573       1.79160573
C        1.81665178      -1.58589073       3.16968038
C        2.62622091      -2.39243568       3.97325033
C        3.39364411      -3.41605062       3.40677626
C        3.37442902      -3.59769991       2.02118163
C        2.57106397      -2.79070926       1.21143409
N        4.22282855      -4.21647308       4.20229079
C        3.71880799      -5.20073298       4.86233233
S        2.07616176      -5.77289348       4.93992351
C        2.45941565      -6.99295891       6.11946238
C        1.57294947      -7.69043871       6.84674258
C        1.95967846      -8.51840452       8.05141424
O        3.03421134      -8.60779625       8.60960613
N        0.77679714      -9.06725217       8.51281179
C       -0.31312897      -8.62369526       7.77922438
C       -1.63554603      -8.94986589       8.01334988
C       -2.59214985      -8.40255189       7.15893156
C       -2.19838445      -7.56022401       6.10696093
Br      -3.51810202      -6.84516254       4.95330096
C       -0.85199648      -7.23988564       5.88966130
C        0.09857219      -7.77006616       6.74793583
C        3.94955052      -7.08491754       6.19729495
O        4.59840810      -8.05832004       6.53223056
N        4.51211614      -5.97566462       5.63676460
H        1.21885435      -0.80178611       3.62624064
H        2.65836852      -2.22267773       5.04606458
H        3.99271208      -4.36930157       1.57019065
H        2.56618176      -2.94632323       0.13602327
H        0.74067389      -9.64526586       9.33940330
H       -1.92650472      -9.60601135       8.82610655
H       -3.64326304      -8.63726942       7.31143786
H       -0.58452327      -6.59674665       5.06036917
H        5.51373227      -5.89066560       5.57180479
C       -0.00445707       0.01189536      -1.78238275
H       -0.66409135       0.67374010      -2.43557963
H        0.65740317      -0.63156657      -2.45157240
C       -0.90989263      -0.90692880      -0.91072765
C        0.90977584       0.90977584      -0.90977584
C       -0.00465871       1.77757030       0.00794375
H       -0.66225468       2.44313916      -0.64384735
H        0.64322798       2.43503045       0.67728295
C       -1.78241447       0.00034974      -0.00472694
H       -2.45427497      -0.65498947       0.64260836
H       -2.43311707       0.67328779      -0.65473579
C       -0.91132561       0.90220522       0.91563759
C       -0.01476271      -0.02253852       1.78660255
H       -0.67934791      -0.69751639       2.42135241
H        0.63392994       0.61504881       2.47327442
C        0.01484550      -1.77751727      -0.01636693
H        0.67870853      -2.42144646      -0.68295456
H       -0.62264859      -2.45592969       0.64226336
C        1.78714474       0.01002794       0.00389507
H        2.44202412       0.67113390       0.66197326
H        2.45385902      -0.65136977      -0.64189061
C        0.91606151      -0.90478549       0.90901405
