133
Properties=species:S:1:pos:R:3 pbc="F F F"
C        0.00000000       0.00000000       0.00000000
C        0.88170171       0.88170171      -0.88170171
C        1.94883932       1.57721981      -0.31645168
C        2.75198386       2.38499778      -1.12521321
C        2.50484019       2.48305194      -2.49886678
C        1.41890961       1.79614221      -3.04854666
C        0.60852754       0.99099073      -2.24397698
N        3.29271230       3.30562551      -3.31354253
C        4.43712454       2.88596481      -3.72907188
S        5.23739676       1.36347588      -3.45839403
C        6.66747904       1.85735565      -4.31729017
C        7.85261666       1.22776205      -4.30003997
C        9.12817722       1.85026049      -4.82134743
O        9.32665754       2.98225552      -5.21298859
N       10.10860964       0.89471542      -4.62382397
C        9.60833544      -0.22508639      -3.97682956
C       10.33792899      -1.33500140      -3.59503008
C        9.65023318      -2.36555101      -2.95493935
C        8.26961963      -2.25532628      -2.72479508
Br       7.35994226      -3.67755730      -1.86826445
C        7.54986561      -1.11932954      -3.11730231
C        8.23494950      -0.08716590      -3.73907850
C        6.33928002       3.12617349      -5.03659743
O        6.86715554       3.54035079      -6.05174030
N        5.20626850       3.67622431      -4.51234048
H        2.16020898       1.50378606       0.74682601
H        3.57476017       2.93996042      -0.68267817
H        1.20069881       1.89304393      -4.10874949
H       -0.23071083       0.46207245      -2.68745458
H       11.07627337       1.06383939      -4.85551822
H       11.40311240      -1.41050034      -3.78328904
H       10.19078664      -3.25556585      -2.64051138
H        6.48334389      -1.07487217      -2.93440877
H        4.82098464       4.51966613      -4.90583982
C       -0.88170171      -0.88170171      -0.88170171
C       -2.14635374      -1.26064968      -0.43550739
C       -2.94949589      -2.06939980      -1.24329916
C       -2.50143884      -2.48260698      -2.50271309
C       -1.22298760      -2.11196101      -2.92864988
C       -0.41269107      -1.30780026      -2.12300392
N       -3.29184150      -3.30937976      -3.31065909
C       -4.24218787      -2.79719657      -4.01277680
S       -4.75233935      -1.13962542      -4.16730191
C       -6.08878276      -1.55089027      -5.20245184
C       -7.10830589      -0.74193654      -5.53017625
C       -8.37795261      -1.23497349      -6.18685904
O       -8.73264292      -2.37336096      -6.41589776
N       -9.16421409      -0.10923519      -6.35369974
C       -8.56336455       1.01854961      -5.81526366
C       -9.10714936       2.28858921      -5.77939752
C       -8.34228971       3.29755400      -5.19488581
C       -7.07057076       3.00713852      -4.67565619
Br      -6.04854506       4.40073916      -3.90284351
C       -6.53975952       1.71140916      -4.71948802
C       -7.30548205       0.70414801      -5.28552806
C       -5.90810417      -2.97540422      -5.61854256
O       -6.33167370      -3.49192276      -6.63565017
N       -5.01323647      -3.58957010      -4.79202671
H       -2.51303736      -0.93983491       0.53570325
H       -3.92945738      -2.37827281      -0.88966857
H       -0.85495288      -2.45594554      -3.89159381
H        0.57805703      -1.02700073      -2.46987250
H      -10.09354216      -0.15766963      -6.74441919
H      -10.08845816       2.50128450      -6.18872745
H       -8.73678239       4.31021098      -5.14916075
H       -5.54999664       1.52736468      -4.32024853
H       -4.74598686      -4.54732044      -4.95318329
C       -0.88170171       0.88170171       0.88170171
C       -2.22821774       1.04985349       0.56443958
C       -3.03155735       1.85912711       1.37151038
C       -2.49882061       2.48306468       2.50487362
C       -1.14215270       2.32202662       2.79941917
C       -0.33212277       1.51838137       1.99299111
N       -3.29196395       3.31157803       3.30833836
C       -4.07916685       2.78939008       4.18360430
S       -4.34608837       1.11860278       4.59457553
C       -5.59603116       1.50461117       5.74148254
C       -6.45575184       0.63310256       6.29156428
C       -7.69447235       1.05770049       7.04761230
O       -8.16652914       2.16751263       7.18785988
N       -8.30159405      -0.11980833       7.44536331
C       -7.62438588      -1.23127559       6.96696831
C       -7.99730714      -2.54938254       7.15003308
C       -7.17954224      -3.53092021       6.59099949
C       -6.02565587      -3.16587849       5.87931105
Br      -4.92602852      -4.52105056       5.14567145
C       -5.66795630      -1.82293499       5.70281707
C       -6.48848574      -0.84559802       6.24397438
C       -5.55686219       2.98265692       5.96253184
O       -5.92391184       3.57561265       6.95972214
N       -4.85206376       3.58251064       4.96025888
H       -2.65959247       0.56411545      -0.30653889
H       -4.07786483       2.00338814       1.11614579
H       -0.71344459       2.82964883       3.65939881
H        0.72033887       1.40212235       2.23703272
H       -9.17770585      -0.12844885       7.94637398
H       -8.88818347      -2.81870056       7.70641820
H       -7.44038400      -4.57962491       6.71497308
H       -4.76382919      -1.57952320       5.15857450
H       -4.69593481       4.57756905       4.97298673
C        0.88170171      -0.88170171       0.88170171
C        2.23832047      -1.01298240       0.59120795
C        3.04171152      -1.82233708       1.39814625
C        2.49833265      -2.48320876       2.50521751
C        1.13222732      -2.35875037       2.77262079
C        0.32226182      -1.55518304       1.96605039
N        3.29204501      -3.31193693       3.30789841
C        4.04783171      -2.79238078       4.21194874
S        4.26795955      -1.12579725       4.66550988
C        5.50072169      -1.50991448       5.83148870
C        6.32828560      -0.63229368       6.41983939
C        7.55930507      -1.04642927       7.19405080
O        8.05302442      -2.14845538       7.32042185
N        8.13086026       0.13490799       7.63119675
C        7.43949880       1.24168417       7.16226398
C        7.77853112       2.56322666       7.38265321
C        6.95138300       3.53885848       6.82709701
C        5.82195554       3.16461511       6.08174798
Br       4.70851758       4.51142124       5.35355307
C        5.49855182       1.81843557       5.86772214
C        6.32876211       0.84746566       6.40556565
C        5.48997960      -2.99306597       6.01900537
O        5.84824149      -3.60009558       7.01090956
N        4.82110117      -3.58557591       4.98815620
H        2.67772201      -0.49838021      -0.25893320
H        4.09637000      -1.93774182       1.16328694
H        0.69622589      -2.89491955       3.61134679
H       -0.73766809      -1.46764700       2.18883728
H        8.99531266       0.15155415       8.15187247
H        8.65065313       2.83949951       7.96474750
H        7.18575723       4.58999502       6.97996995
H        4.61233506       1.56749102       5.29803644
H        4.68717044      -4.58386481       4.97545533
