125
Properties=species:S:1:pos:R:3 pbc="F F F"
C        0.00000000       0.00000000       0.00000000
N        4.33127599       5.68157952      -5.60757026
C        4.83245970       4.83962352      -4.98203400
C        5.39856856       3.78451420      -4.17776631
N        4.62263599       3.08726496      -3.39759790
N        3.28083659       3.31284737      -3.36487895
C        2.50901665       2.51699568      -2.48743037
C        3.03127739       1.38001362      -1.85170851
C        2.22812573       0.57172039      -1.04164966
C        0.88141043       0.88141043      -0.88141043
C        0.33207340       1.98457734      -1.52953436
C        1.14224685       2.79100896      -2.33642065
C        6.86268592       3.46301183      -4.21157515
O        7.65580419       4.39653223      -4.22937636
C        7.32594641       2.05034400      -4.18832721
C        6.49934210       0.98450159      -4.56966748
C        6.97000157      -0.33015302      -4.49264708
C        8.26586157      -0.57900323      -4.04362086
C        9.10260043       0.47477186      -3.68139617
C        8.63492531       1.78940311      -3.75912197
H        2.90234302       4.25605814      -3.48412993
H        4.07858331       1.11611708      -1.97537201
H        2.66440024      -0.29327906      -0.54969187
H       -0.72276284       2.22230364      -1.42128810
H        0.69114510       3.63608557      -2.85062192
H        5.48287061       1.14369748      -4.92254117
H        6.31628621      -1.15105715      -4.77911320
H       10.11478823       0.28537557      -3.33229228
H        9.29313129       2.60661399      -3.46736154
C        8.74115500      -1.93509717      -3.95031815
C        9.13921325      -3.07082584      -3.87217714
Br       9.78283977      -4.90720304      -3.74582973
N       -4.34634252      -5.78190693      -5.49217631
C       -4.82125757      -4.85241287      -4.98044677
C       -5.35647966      -3.69075060      -4.31361882
N       -4.58763528      -2.99260056      -3.52726301
N       -3.27694443      -3.31984233      -3.36177615
C       -2.51140692      -2.51508840      -2.48694737
C       -2.98273711      -1.29004321      -1.99021920
C       -2.17968984      -0.48119223      -1.18061372
C       -0.88141043      -0.88141043      -0.88141043
C       -0.37930658      -2.07607500      -1.39080354
C       -1.18941855      -2.88225002      -2.19800788
C       -6.78033420      -3.25867368      -4.49826502
O       -7.64675684      -4.12468843      -4.51026750
C       -7.12101626      -1.81705616      -4.62654521
C       -6.17844485      -0.85652751      -5.01853882
C       -6.53913629       0.49294596      -5.08630529
C       -7.84026422       0.88101641      -4.77123139
C       -8.79035499      -0.06836738      -4.40004610
C       -8.43256980      -1.41764240      -4.33323820
H       -2.97257145      -4.29675130      -3.37320835
H       -3.99047161      -0.95582110      -2.22377968
H       -2.57760772       0.45459454      -0.79779985
H        0.63937110      -2.38622376      -1.17397624
H       -0.77330732      -3.80133059      -2.60321469
H       -5.15469910      -1.12522992      -5.26918024
H       -5.79679241       1.23201090      -5.37956075
H       -9.80695631       0.22966724      -4.15516701
H       -9.17947491      -2.15223011      -4.03540180
C       -8.20328753       2.27340991      -4.82649836
C       -8.50731955       3.43953945      -4.87278445
Br      -8.99891362       5.32507231      -4.94762514
N       -4.50198179       6.01055528       5.10788870
C       -4.79562970       4.89508945       4.96339807
C       -5.11397952       3.50593727       4.74093229
N       -4.36876587       2.79828698       3.94044599
N       -3.27067046       3.34087978       3.34701267
C       -2.51772242       2.50798206       2.48773822
C       -2.72179477       1.12111323       2.42009152
C       -1.91853415       0.31079714       1.61216450
C       -0.88141043       0.88141043       0.88141043
C       -0.63729458       2.25006967       0.95882086
C       -1.44692903       3.05568356       1.76706387
C       -6.28432919       2.84624905       5.40669467
O       -7.33514199       3.47238945       5.47418133
C       -6.17045042       1.46054906       5.93361814
C       -4.93464921       0.87589867       6.24296329
C       -4.87842179      -0.44494305       6.69901688
C       -6.05426801      -1.17728567       6.85349686
C       -7.28947849      -0.59883883       6.56812881
C       -7.34816101       0.72145887       6.11383051
H       -3.25785545       4.32338773       3.06128792
H       -3.51991611       0.65652693       2.99362936
H       -2.11057190      -0.75773008       1.56797122
H        0.18143304       2.69920477       0.40305716
H       -1.22835122       4.11880382       1.83069755
H       -3.99859911       1.41862305       6.13188710
H       -3.91336979      -0.89344901       6.92442147
H       -8.20936725      -1.16583297       6.68892180
H       -8.31721064       1.16350670       5.88638948
C       -5.99086952      -2.54227782       7.30778429
C       -5.93777328      -3.68545874       7.68825001
Br      -5.85192115      -5.53388561       8.30343091
N        4.43116648      -5.94828461       5.24097467
C        4.80263222      -4.88029609       4.97118890
C        5.21437443      -3.54950249       4.59697215
N        4.46097294      -2.84618486       3.80034104
N        3.27177066      -3.33395615       3.35283610
C        2.51579901      -2.51056416       2.48707953
C        2.82808863      -1.15865633       2.27625456
C        2.02499187      -0.34878471       1.46771921
C        0.88141043      -0.88141043       0.88141043
C        0.53179955      -2.21077600       1.10360956
C        1.34164313      -3.01653717       1.91149616
C        6.49167044      -2.94608641       5.09951605
O        7.48820504      -3.65771600       5.13579174
C        6.54264782      -1.51659079       5.50537902
C        5.39348746      -0.79773155       5.86229217
C        5.48977828       0.55621484       6.19893218
C        6.73191839       1.18847309       6.18703389
C        7.88320063       0.47782848       5.85339632
C        7.78955178      -0.87565549       5.51824313
H        3.15081143      -4.33162551       3.16009415
H        3.71128565      -0.72256427       2.73622248
H        2.30086261       0.69029084       1.31024127
H       -0.36893029      -2.62816799       0.66159118
H        1.04166375      -4.04619846       2.08999038
H        4.40911673      -1.26009707       5.87989546
H        4.59023548       1.10823627       6.46234304
H        8.85445094       0.96656519       5.84457032
H        8.69341550      -1.42180378       5.25188754
C        6.82462373       2.58673732       6.51848957
C        6.90226445       3.75778361       6.79608371
Br       7.02780293       5.65126642       7.24492994
