121
Properties=species:S:1:pos:R:3 pbc="F F F"
C        0.00000000       0.00000000       0.00000000
C        0.88196242       0.88196242      -0.88196242
C        1.04706885       0.56307526      -2.22939408
C        1.84543833       1.37020764      -3.04004614
C        2.48409560       2.48935254      -2.50085349
C        2.33030726       2.79915525      -1.14139914
C        1.51380845       1.99644393      -0.33407399
C        2.98873675       3.98251859      -0.51979794
O        2.46184629       4.52123206       0.44893504
N        4.19244232       4.36135395      -1.09089372
N        4.87573421       5.43587178      -0.59643473
C        6.01930860       5.69509250      -1.14244523
C        6.72207430       4.95235697      -2.28313698
O        6.26944861       3.98640904      -2.86207092
N        7.91622791       5.61314515      -2.47358302
C        8.03166554       6.68303135      -1.58867638
C        9.08014011       7.57062295      -1.47898059
C        8.97082311       8.57540112      -0.50810653
C        7.82886353       8.66580552       0.31657443
Br       7.73012693      10.04247367       1.61021736
C        6.77405597       7.76155731       0.19785587
C        6.91079826       6.78300317      -0.76440192
H        0.55223480      -0.30503765      -2.65772835
H        1.96360303       1.13234908      -4.09473063
H        3.07368545       3.11936956      -3.16198467
H        1.37974454       2.24596232       0.71668919
H        4.63007840       3.79928685      -1.82147618
H        8.59735700       5.34146446      -3.16738524
H        9.95921972       7.50414218      -2.11052580
H        9.78148852       9.29289090      -0.39279002
H        5.88792717       7.81183709       0.82205583
C       -0.88196242      -0.88196242      -0.88196242
C       -1.09123417      -2.21564633      -0.53265769
C       -1.90215242      -3.02239222      -1.33114748
C       -2.49534404      -2.49735208      -2.48160550
C       -2.27025604      -1.16009184      -2.84051377
C       -1.46947904      -0.34787281      -2.02697451
C       -2.88169786      -0.55311693      -4.05623849
O       -3.11391545       0.65191067      -4.07213852
N       -3.11161470      -1.42733298      -5.10574230
N       -3.67122769      -0.97137267      -6.26544036
C       -3.80275236      -1.83241330      -7.22168067
C       -3.41181598      -3.31355187      -7.23220040
O       -2.91790738      -3.90533632      -6.29468487
N       -3.74069492      -3.77334000      -8.48892116
C       -4.29650322      -2.75135508      -9.25551497
C       -4.74504323      -2.82840650     -10.55629391
C       -5.27104406      -1.65977115     -11.12351554
C       -5.33516665      -0.45966178     -10.38326619
Br      -6.05641412       1.08922521     -11.19519434
C       -4.87732761      -0.39255640      -9.06787340
C       -4.36341847      -1.55734851      -8.53743637
H       -0.63494100      -2.63198363       0.36199911
H       -2.07927551      -4.05872418      -1.05268304
H       -3.14872128      -3.13862757      -3.06769083
H       -1.30847010       0.69450293      -2.29505050
H       -2.78891939      -2.39459086      -5.06733117
H       -3.59155152      -4.72558886      -8.78906633
H       -4.69710531      -3.74851308     -11.12826931
H       -5.63313000      -1.68408814     -12.14995129
H       -4.91589670       0.51948287      -8.48129459
C       -0.88196242       0.88196242       0.88196242
C       -0.82607516       2.26854678       0.74491625
C       -1.63543297       3.07725208       1.54300707
C       -2.49263499       2.49934060       2.48232605
C       -2.53534657       1.10507302       2.63044206
C       -1.73403126       0.29505786       1.81523724
C       -3.43394144       0.44092253       3.61618930
O       -3.84186104      -0.69342757       3.38570983
N       -3.71188224       1.17603292       4.75677483
N       -4.52775761       0.65808457       5.72219855
C       -4.69553802       1.37697317       6.78433514
C       -4.09674324       2.74825797       7.11256704
O       -3.36360390       3.37688956       6.37743510
N       -4.56895948       3.06660720       8.36738939
C       -5.39630220       2.05557475       8.85149631
C       -6.04959937       2.01589120      10.06425307
C       -6.83475256       0.88654690      10.33303130
C       -6.94567825      -0.16010349       9.39251987
Br      -8.02030818      -1.66162779       9.80370285
C       -6.27928860      -0.11019962       8.16866842
C       -5.51292853       1.01205775       7.93321707
H       -0.16314451       2.72666216       0.01511884
H       -1.60489173       4.15828230       1.42750872
H       -3.13600429       3.15094385       3.06809154
H       -1.77933049      -0.78748247       1.91716966
H       -3.24730626       2.06645723       4.93707794
H       -4.33491781       3.92254712       8.84874177
H       -5.96652387       2.81789817      10.78946566
H       -7.36361621       0.82115625      11.28239698
H       -6.34948482      -0.90382844       7.43205204
C        0.88196242      -0.88196242       0.88196242
C        0.86792749      -0.70635950       2.26525121
C        1.66603822      -1.51481176       3.07484213
C        2.48296429      -2.49123525       2.50010210
C        2.50837329      -2.65529139       1.10719698
C        1.69252270      -1.85347730       0.29832637
C        3.36085776      -3.68351816       0.44667736
O        3.00370456      -4.15786740      -0.62742866
N        4.53449073      -3.99894096       1.11125830
N        5.38567042      -4.93184033       0.59052998
C        6.48861801      -5.13244756       1.23578076
C        6.97791593      -4.45826638       2.52138594
O        6.35841433      -3.61844488       3.14106935
N        8.21444262      -5.00896235       2.77955111
C        8.54476258      -5.95095499       1.80765569
C        9.69494370      -6.70595390       1.72884604
C        9.80462955      -7.59701118       0.65269003
C        8.77286696      -7.70920938      -0.30398172
Br       8.96976486      -8.92900920      -1.73639081
C        7.61355710      -6.93946416      -0.21526386
C        7.53490369      -6.07045819       0.85284146
H        0.23375610       0.04993259       2.72110200
H        1.64548243      -1.39011424       4.15508606
H        3.06981397      -3.12906984       3.15615587
H        1.69832072      -1.99180047      -0.78110353
H        4.82552470      -3.48313307       1.94218365
H        8.78355384      -4.75040446       3.57224840
H       10.48989777      -6.62227557       2.46171437
H       10.70073065      -8.20805678       0.55838201
H        6.80899418      -7.00872580      -0.94001156
