145
Properties=species:S:1:pos:R:3 pbc="F F F"
C        0.00000000       0.00000000       0.00000000
C        0.88171966       0.88171966      -0.88171966
C        2.12109819       0.41045399      -1.31291676
C        2.92744065       1.21807373      -2.12038357
C        2.49197832       2.49513062      -2.49594887
C        1.24457935       2.95986158      -2.05778267
C        0.43984360       2.15182926      -1.24937519
C        3.35960650       3.32273586      -3.34977675
N        4.53642589       3.01987031      -3.79280443
C        4.89193385       4.13246704      -4.52551108
C        6.07867482       4.21307901      -5.14201778
C        6.55630775       5.32684087      -5.87896372
C        7.50714768       5.34386432      -6.89210456
C        7.66929340       6.68581669      -7.31649912
C        6.82591565       7.44480108      -6.53576065
O        6.18128505       6.62681765      -5.65693084
C        6.49706396       8.86633581      -6.45373565
C        7.11937002       9.79614742      -7.30129656
C        6.80619243      11.15841510      -7.22825148
C        5.86587931      11.60379437      -6.30299715
Br       5.44368295      13.44315407      -6.20255116
C        5.23378778      10.70087181      -5.45414893
C        5.54783341       9.34022476      -5.53314489
C        3.76826038       5.12381273      -4.50394817
O        3.61387373       6.18876791      -5.06193232
O        2.84523711       4.51832829      -3.70258732
H        2.46762571      -0.57952596      -1.02794648
H        3.89321184       0.84267919      -2.45312817
H        0.88323230       3.94819577      -2.33460212
H       -0.52612771       2.52183419      -0.91435985
H        6.74048782       3.35381498      -5.07449279
H        8.01650764       4.47632103      -7.28909459
H        8.32103952       7.04689111      -8.09863425
H        7.85502881       9.47311663      -8.03336503
H        7.29972710      11.85808113      -7.89739264
H        4.49434297      11.03603364      -4.73199693
H        5.03323782       8.64621053      -4.86959446
C       -0.88171966      -0.88171966      -0.88171966
C       -1.95374632      -1.57255336      -0.31816926
C       -2.76064928      -2.37915059      -1.12609808
C       -2.49436134      -2.49225175      -2.49644472
C       -1.41475175      -1.79377019      -3.05370166
C       -0.60792570      -0.98860569      -2.24451667
C       -3.36234519      -3.34552784      -3.32424609
N       -4.36537293      -4.05818305      -2.92554465
C       -4.81126570      -4.65066297      -4.08798330
C       -5.84995196      -5.49686788      -4.08695178
C       -6.35535118      -6.19073605      -5.21602512
C       -7.63580128      -6.69250605      -5.41480923
C       -7.66659338      -7.32068804      -6.68432779
C       -6.39938633      -7.19749584      -7.20959521
O       -5.61045594      -6.54253869      -6.31203891
C       -5.75671671      -7.60234094      -8.45807777
C       -6.47597541      -8.29948552      -9.44135307
C       -5.86565438      -8.68744103     -10.63976360
C       -4.52612074      -8.38155389     -10.86499620
Br      -3.70083790      -8.90647290     -12.48207738
C       -3.79328280      -7.68900781      -9.90651791
C       -4.40849806      -7.30075678      -8.71194822
C       -3.98052811      -4.17462724      -5.24086592
O       -4.05939360      -4.37073440      -6.43444595
O       -3.06486020      -3.36185499      -4.63943753
H       -2.16946133      -1.49053099       0.74394611
H       -3.59571409      -2.91467846      -0.67862665
H       -1.18587793      -1.86506519      -4.11508706
H        0.22752827      -0.45110034      -2.68649425
H       -6.35399839      -5.67410845      -3.14068875
H       -8.46040612      -6.60041216      -4.72110497
H       -8.51374433      -7.79966406      -7.15315649
H       -7.52326234      -8.54808124      -9.29016690
H       -6.44475702      -9.22382852     -11.38661534
H       -2.74893640      -7.43989273     -10.07354441
H       -3.82267973      -6.74770425      -7.97865883
C       -0.88171966       0.88171966       0.88171966
C       -0.29360103       1.75610254       1.79476537
C       -1.10146277       2.56320091       2.60123427
C       -2.49608309       2.49495342       2.49202129
C       -3.07787231       1.61319136       1.57115994
C       -2.26898668       0.80579026       0.76627111
C       -3.32247197       3.35878223       3.35086490
N       -2.90821382       4.18766164       4.25322517
C       -4.07832513       4.72281908       4.74876775
C       -4.06922164       5.62932966       5.73522031
C       -5.21419082       6.20444009       6.34348144
C       -5.31700026       7.42323654       7.00287975
C       -6.65186252       7.56323597       7.45651072
C       -7.31401279       6.41739236       7.07507223
O       -6.43894194       5.59444654       6.43164505
C       -8.68276796       5.92368124       7.21068622
C       -9.65734464       6.68581311       7.87365624
C      -10.97024322       6.21842879       8.00418700
C      -11.32026310       4.98025620       7.47215152
Br     -13.09227428       4.34769361       7.64942028
C      -10.37245789       4.20797161       6.80837902
C       -9.06263575       4.68077125       6.67779606
C       -5.24471184       4.14589437       4.00541506
O       -6.43345241       4.37815716       4.05296439
O       -4.65249402       3.26431000       3.14934871
H        0.78769700       1.81739380       1.88634943
H       -0.63463159       3.24336547       3.31102215
H       -4.15855662       1.54030422       1.46716934
H       -2.73018700       0.12467197       0.05520737
H       -3.10287026       5.95665032       6.10927502
H       -4.51527359       8.13817779       7.12847187
H       -7.07261500       8.40138930       7.99256058
H       -9.40952120       7.65638556       8.29560371
H      -11.70722818       6.82853090       8.51944179
H      -10.63533639       3.24274649       6.38429066
H       -8.33729582       4.06832836       6.14341863
C        0.88171966      -0.88171966       0.88171966
C        0.34764399      -2.02817284       1.46865210
C        1.15558730      -2.83499402       2.27531663
C        2.49656424      -2.49409931       2.49239426
C        3.02434533      -1.33998097       1.89789730
C        2.21506901      -0.53340476       1.09257429
C        3.32541309      -3.36356738       3.34313864
N        2.94977408      -4.43272080       3.96660575
C        4.10053533      -4.84469192       4.60468471
C        4.11522418      -5.93390179       5.38464564
C        5.23044894      -6.41369903       6.11796437
C        5.48059613      -7.70943795       6.55308248
C        6.70910888      -7.70375345       7.25874688
C        7.15811904      -6.40177890       7.24657944
O        6.25287960      -5.62805587       6.58409807
C        8.33579846      -5.71215121       7.76918575
C        9.31937846      -6.41400585       8.48342968
C       10.45028858      -5.75854228       8.98402815
C       10.60683529      -4.39091077       8.77492477
Br      12.13263563      -3.50481354       9.45193901
C        9.64680187      -3.67432558       8.06768107
C        8.52005081      -4.33441273       7.56673953
C        5.22418384      -3.91675617       4.25508127
O        6.40630359      -3.93571070       4.52255966
O        4.61529755      -2.98869998       3.46215520
H       -0.69144831      -2.30204023       1.30545430
H        0.73126628      -3.72838006       2.72937288
H        4.06251185      -1.05235922       2.05115911
H        2.63401231       0.36016383       0.63621786
H        3.19441884      -6.50466642       5.46971033
H        4.84831786      -8.56686485       6.36674055
H        7.20170187      -8.55007702       7.71478599
H        9.22122384      -7.48236162       8.65792501
H       11.19906877      -6.32473975       9.53139235
H        9.76095571      -2.60790665       7.89351117
H        7.78535573      -3.75963115       7.00405593
