153
Properties=species:S:1:pos:R:3 pbc="F F F"
C        0.00000000       0.00000000       0.00000000
C        0.88171966       0.88171966      -0.88171966
C        2.12109819       0.41045399      -1.31291676
C        2.92744065       1.21807373      -2.12038357
C        2.49197832       2.49513062      -2.49594887
C        1.24457935       2.95986158      -2.05778267
C        0.43984360       2.15182926      -1.24937519
C        3.35960650       3.32273586      -3.34977675
N        4.53642589       3.01987031      -3.79280443
C        4.89193385       4.13246704      -4.52551108
C        6.07867482       4.21307901      -5.14201778
C        6.55630775       5.32684087      -5.87896372
C        7.50714768       5.34386432      -6.89210456
C        7.66929340       6.68581669      -7.31649912
C        6.82591565       7.44480108      -6.53576065
O        6.18128505       6.62681765      -5.65693084
C        6.49706396       8.86633581      -6.45373565
C        7.11937002       9.79614742      -7.30129656
C        6.80619243      11.15841510      -7.22825148
C        5.86587931      11.60379437      -6.30299715
C        5.23378778      10.70087181      -5.45414893
C        5.54783341       9.34022476      -5.53314489
C        3.76826038       5.12381273      -4.50394817
O        3.61387373       6.18876791      -5.06193232
O        2.84523711       4.51832829      -3.70258732
H        2.46762571      -0.57952596      -1.02794648
H        3.89321184       0.84267919      -2.45312817
H        0.88323230       3.94819577      -2.33460212
H       -0.52612771       2.52183419      -0.91435985
H        6.74048782       3.35381498      -5.07449279
H        8.01650764       4.47632103      -7.28909459
H        8.32103952       7.04689111      -8.09863425
H        7.85502881       9.47311663      -8.03336503
H        7.29972710      11.85808113      -7.89739264
H        4.49434297      11.03603364      -4.73199693
H        5.03323782       8.64621053      -4.86959446
C        5.54418262      13.00531266      -6.22646134
C        5.27476165      14.17908422      -6.16236260
Br       4.83913072      16.07697357      -6.05872035
C       -0.88171966      -0.88171966      -0.88171966
C       -1.87602710      -1.66774893      -0.30069290
C       -2.68301008      -2.47428837      -1.10859950
C       -2.49460926      -2.49213959      -2.49630895
C       -1.49280113      -1.69838869      -3.07103378
C       -0.68573609      -0.89335372      -2.26195823
C       -3.36099032      -3.34777316      -3.32335564
N       -4.29532661      -4.14188592      -2.91188809
C       -4.77643959      -4.69273227      -4.08074011
C       -5.76286059      -5.59927716      -4.07163386
C       -6.29542141      -6.25669441      -5.20999653
C       -7.55469139      -6.82326722      -5.36515794
C       -7.62663089      -7.37826909      -6.66670924
C       -6.40292179      -7.14820268      -7.25535291
O       -5.59968874      -6.49900931      -6.36633549
C       -5.81529658      -7.44084926      -8.56098958
C       -6.55190093      -8.12292059      -9.54199248
C       -5.99443109      -8.40358002     -10.79484790
C       -4.69086327      -8.00427290     -11.07753465
C       -3.94197336      -7.32453408     -10.12230108
C       -4.50457110      -7.04365779      -8.87297417
C       -4.04613462      -4.10162114      -5.24826552
O       -4.18614979      -4.23334841      -6.44507576
O       -3.14369677      -3.27045519      -4.65200077
H       -2.03101781      -1.66009992       0.77507151
H       -3.45716729      -3.08446596      -0.64738596
H       -1.32526892      -1.69458856      -4.14617270
H        0.08902997      -0.28149718      -2.71759912
H       -6.19734815      -5.86089087      -3.11055657
H       -8.33944817      -6.82151723      -4.62095786
H       -8.47187287      -7.88024649      -7.11444552
H       -7.57204343      -8.44309236      -9.34637469
H       -6.58619962      -8.93049088     -11.53851037
H       -2.92575543      -7.00311482     -10.33350328
H       -3.90789261      -6.49895310      -8.14219711
C       -4.11631221      -8.29383850     -12.36580591
C       -3.63512569      -8.53634969     -13.44473309
Br      -2.85708778      -8.92846977     -15.18926709
C       -0.88171966       0.88171966       0.88171966
C       -0.29336305       1.78013685       1.77096904
C       -1.10123466       2.58721277       2.57745052
C       -2.49612972       2.49488765       2.49204042
C       -3.07816363       1.58906738       1.59499259
C       -2.26923819       0.78173090       0.79007896
C       -3.32260813       3.35923457       3.35027641
N       -2.90749767       4.20920393       4.23239904
C       -4.07807765       4.73355543       4.73827889
C       -4.06793318       5.65601944       5.70981900
C       -5.21222345       6.22254916       6.32733973
C       -5.32427591       7.45010748       6.96873317
C       -6.65380780       7.57608557       7.44171584
C       -7.30325401       6.41373965       7.08948372
O       -6.42532376       5.59454773       6.44516204
C       -8.66145272       5.90045751       7.25522519
C       -9.63756106       6.65757668       7.92167626
C      -10.94042725       6.17142573       8.08100603
C      -11.27873281       4.91932080       7.57461723
C      -10.32923669       4.15161004       6.90796179
C       -9.02953505       4.64312482       6.74854319
C       -5.24667395       4.12602441       4.02332291
O       -6.43812161       4.33997578       4.08647658
O       -4.65397241       3.24022412       3.17195619
H        0.78812230       1.86020649       1.84396203
H       -0.63422802       3.28621535       3.26857584
H       -4.15904538       1.49721291       1.50977189
H       -2.73062034       0.08184420       0.09760180
H       -3.10117069       6.00480378       6.06282113
H       -4.53237591       8.17973586       7.06981149
H       -7.07950374       8.41600543       7.97105571
H       -9.39883489       7.63872513       8.32395045
H      -11.67889709       6.77795463       8.59834915
H      -10.58313524       3.17553177       6.50370653
H       -8.30297517       4.03375838       6.21230927
C      -12.61858196       4.41804752       7.73932714
C      -13.74070562       3.99823115       7.87727170
Br     -15.55508467       3.31942358       8.10031639
C        0.88171966      -0.88171966       0.88171966
C        0.39416527      -2.10172618       1.34857748
C        1.20211363      -2.90845947       2.15532485
C        2.49666803      -2.49380675       2.49258302
C        2.97791413      -1.26604908       2.01826039
C        2.16856597      -0.45974841       1.21273368
C        3.32699550      -3.36467245       3.34045117
N        2.98894440      -4.49964600       3.86051022
C        4.12060728      -4.87782915       4.55147554
C        4.16173778      -6.01761520       5.25441864
C        5.25651432      -6.47266906       6.03292896
C        5.57051328      -7.77669912       6.39590416
C        6.74439743      -7.73896292       7.18824885
C        7.09679257      -6.41203247       7.29765234
O        6.18463453      -5.65540090       6.62499811
C        8.18255841      -5.68385404       7.95072297
C        9.16388447      -6.36742574       8.68550379
C       10.20711206      -5.67481682       9.31093013
C       10.27712060      -4.28807888       9.20747135
C        9.31766942      -3.58875840       8.48238070
C        8.27894149      -4.28565938       7.85660218
C        5.19459602      -3.85244226       4.34898299
O        6.35396653      -3.81034288       4.70026455
O        4.57490828      -2.91252715       3.57871729
H       -0.60858616      -2.43306469       1.09156769
H        0.81431149      -3.85947440       2.51523332
H        3.97941549      -0.92036162       2.26625307
H        2.55116063       0.49125006       0.85015577
H        3.28147989      -6.65446038       5.23285532
H        5.01678417      -8.65927528       6.10586381
H        7.26534386      -8.58084330       7.62037772
H        9.13245084      -7.44987825       8.77918138
H       10.95626116      -6.22720124       9.87173848
H        9.36514163      -2.50716710       8.39006480
H        7.54422280      -3.72265436       7.28216565
C       11.34939786      -3.57481899       9.85173978
C       12.24743006      -2.97746382      10.39131459
Br      13.69947217      -2.01159105      11.26376142
