174
Properties=species:S:1:pos:R:3 pbc="F F F"
C        1.79162368       1.79162368      -1.79162368
C        3.03100221       1.32035801      -2.22282078
C        3.83734468       2.12797775      -3.03028760
C        3.40188234       3.40503464      -3.40585289
C        2.15448338       3.86976560      -2.96768670
C        1.34974763       3.06173328      -2.15927922
C        4.26951052       4.23263989      -4.25968078
N        5.44632991       3.92977433      -4.70270846
C        5.80183787       5.04237107      -5.43541511
C        6.98857885       5.12298303      -6.05192181
C        7.46621178       6.23674489      -6.78886774
C        8.41705170       6.25376835      -7.80200858
C        8.57919743       7.59572071      -8.22640314
C        7.73581968       8.35470510      -7.44566467
O        7.09118908       7.53672167      -6.56683486
C        7.40696798       9.77623983      -7.36363968
C        8.02927404      10.70605144      -8.21120058
C        7.71609645      12.06831913      -8.13815550
C        6.77578333      12.51369840      -7.21290118
C        6.14369180      11.61077584      -6.36405295
C        6.45773744      10.25012878      -6.44304891
C        4.67816440       6.03371675      -5.41385219
O        4.52377776       7.09867193      -5.97183634
O        3.75514114       5.42823232      -4.61249134
H        3.37752973       0.33037806      -1.93785050
H        4.80311587       1.75258322      -3.36303219
H        1.79313632       4.85809979      -3.24450615
H        0.38377631       3.43173822      -1.82426388
H        7.65039184       4.26371900      -5.98439682
H        8.92641166       5.38622505      -8.19899862
H        9.23094355       7.95679513      -9.00853827
H        8.76493284      10.38302065      -8.94326905
H        8.20963113      12.76798516      -8.80729666
H        5.40424699      11.94593766      -5.64190095
H        5.94314185       9.55611456      -5.77949848
C        6.45408664      13.91521668      -7.13636536
C        6.18466567      15.08898825      -7.07226662
Br       5.74903474      16.98687760      -6.96862437
C       -1.79162368      -1.79162368      -1.79162368
C       -1.21692006      -2.82046675      -2.53679420
C       -2.02483730      -3.62741476      -3.34335796
C       -3.40627449      -3.40440591      -3.40208948
C       -3.97468100      -2.36802600      -2.64922868
C       -3.16555529      -1.56106478      -1.84414005
C       -4.23361975      -4.27150492      -4.25670651
N       -3.82659764      -5.23632622      -5.01588884
C       -4.99322674      -5.70181053      -5.58458677
C       -4.98680396      -6.71140280      -6.46527693
C       -6.12159971      -7.23184767      -7.13837703
C       -6.29505954      -8.50109493      -7.67667416
C       -7.58354658      -8.55441845      -8.26335625
C       -8.14579106      -7.31060037      -8.07979803
O       -7.25292332      -6.51355182      -7.42827047
C       -9.42785056      -6.69786370      -8.42113324
C      -10.41007518      -7.42685011      -9.10960079
C      -11.64047708      -6.84527565      -9.43681835
C      -11.89918100      -5.52500740      -9.07819450
C      -10.94232981      -4.78315064      -8.39304014
C       -9.71559303      -5.36975448      -8.06556762
C       -6.15596822      -4.92699249      -5.04277264
O       -7.35229067      -5.03998806      -5.20200731
O       -5.55769355      -4.01864383      -4.21952743
H       -0.14609365      -3.00244107      -2.49722357
H       -1.56859879      -4.42863779      -3.92149470
H       -5.04484634      -2.17323637      -2.67765955
H       -3.61625157      -0.75933095      -1.26419588
H       -4.03103310      -7.17678778      -6.69068679
H       -5.57181780      -9.30416329      -7.63565424
H       -8.04025177      -9.40080945      -8.75521573
H      -10.23301402      -8.45961246      -9.39859607
H      -12.38568424      -7.43150378      -9.96772493
H      -11.13509885      -3.75388254      -8.10310422
H       -8.98358631      -4.77782974      -7.51733884
C      -13.16430495      -4.92569650      -9.41566724
C      -14.22384625      -4.42377362      -9.69830067
Br     -15.93703492      -3.61220678     -10.15529501
C       -1.79162368       1.79162368       1.79162368
C       -2.02130398       3.11942058       1.43345645
C       -2.82891400       3.92576182       2.24093421
C       -3.40618967       3.40202804       3.40455217
C       -3.16971043       2.06617737       3.75604787
C       -2.36094407       1.26134903       2.94846703
C       -4.25523161       4.27236028       4.23423930
N       -4.52443369       5.52134113       4.03303788
C       -5.34605476       5.84014498       5.09342430
C       -5.83292148       7.07813154       5.25243066
C       -6.64537881       7.51775747       6.32868813
C       -7.54149980       8.57948807       6.35184077
C       -8.10898966       8.64394194       7.64838968
C       -7.52668672       7.63137220       8.37813053
O       -6.62955757       6.97675804       7.58842999
C       -7.65894291       7.13988899       9.74801558
C       -8.54161423       7.75624870      10.64866313
C       -8.67362213       7.28788430      11.96106465
C       -7.92051599       6.19639245      12.38547447
C       -7.04100068       5.56725354      11.51026637
C       -6.91496645       6.03703509      10.19891359
C       -5.57221126       4.61994941       5.93357267
O       -6.27193694       4.41949217       6.90285692
O       -4.80865211       3.67698636       5.31022633
H       -1.57889188       3.53501913       0.53184729
H       -3.00365866       4.96092839       1.95414423
H       -3.60551740       1.63513371       4.65509115
H       -2.18331202       0.22629797       3.23016841
H       -5.58636033       7.81723179       4.49491554
H       -7.76879066       9.22695204       5.51589263
H       -8.85315323       9.34401150       7.99911222
H       -9.14204865       8.60839478      10.34077911
H       -9.36595610       7.78049410      12.63846275
H       -6.45227164       4.71126776      11.82854620
H       -6.23117453       5.52372895       9.52385141
C       -8.05490488       5.71485817      13.73590564
C       -8.16745557       5.31157321      14.86689175
Br      -8.34944053       4.65949554      16.69560064
C        1.79162368      -1.79162368       1.79162368
C        2.30194356      -1.28573605       2.98650140
C        3.10866033      -2.09368399       3.79326570
C        3.40241583      -3.40653861       3.40381544
C        2.88459466      -3.90612440       2.20121662
C        2.07914413      -3.09679820       1.39481779
C        4.25131911      -4.23629872       4.27421335
N        4.80884802      -3.88333057       5.38663411
C        5.48064795      -5.02257841       5.77639768
C        6.21152377      -5.05314559       6.89881433
C        6.97372457      -6.15585662       7.36224323
C        7.36222665      -6.44620486       8.66439712
C        8.12354010      -7.64073076       8.63705042
C        8.18974796      -8.02911466       7.31732683
O        7.52095311      -7.11922569       6.55456681
C        8.79627097      -9.14935966       6.60121686
C        9.52352522     -10.13181416       7.29118668
C       10.10441069     -11.20793977       6.61022061
C        9.96345721     -11.31013050       5.22879519
C        9.24492976     -10.35018315       4.52340769
C        8.66368990      -9.27843718       5.20878805
C        5.22478762      -6.11644623       4.78449950
O        5.54557729      -7.28519121       4.76351754
O        4.44635280      -5.50092999       3.84858201
H        2.07888991      -0.26866308       3.29820530
H        3.50264571      -1.69149217       4.72459340
H        3.09829807      -4.92207643       1.87536775
H        1.68262253      -3.49371659       0.46343929
H        6.22856786      -4.15687645       7.51306336
H        7.10909464      -5.86313715       9.53940355
H        8.56401196      -8.15130766       9.48095734
H        9.64587765     -10.07557840       8.36976650
H       10.66026179     -11.95717843       7.16747273
H        9.12355675     -10.42246056       3.44606830
H        8.09358214      -8.54353500       4.64163774
C       10.56190833     -12.41629301       4.52746735
C       11.06311114     -13.34270412       3.94010528
Br      11.87351370     -14.84063253       2.99039048
C       -0.00445707       0.01189536      -1.78238275
H       -0.66409135       0.67374010      -2.43557963
H        0.65740317      -0.63156657      -2.45157240
C       -0.90989263      -0.90692880      -0.91072765
C        0.90977584       0.90977584      -0.90977584
C       -0.00465871       1.77757030       0.00794375
H       -0.66225468       2.44313916      -0.64384735
H        0.64322798       2.43503045       0.67728295
C       -1.78241447       0.00034974      -0.00472694
H       -2.45427497      -0.65498947       0.64260836
H       -2.43311707       0.67328779      -0.65473579
C       -0.91132561       0.90220522       0.91563759
C       -0.01476271      -0.02253852       1.78660255
H       -0.67934791      -0.69751639       2.42135241
H        0.63392994       0.61504881       2.47327442
C        0.01484550      -1.77751727      -0.01636693
H        0.67870853      -2.42144646      -0.68295456
H       -0.62264859      -2.45592969       0.64226336
C        1.78714474       0.01002794       0.00389507
H        2.44202412       0.67113390       0.66197326
H        2.45385902      -0.65136977      -0.64189061
C        0.91606151      -0.90478549       0.90901405
