141
Properties=species:S:1:pos:R:3 pbc="F F F"
C        0.00000000       0.00000000       0.00000000
C        0.88227405       0.88227405      -0.88227405
C        1.31952189       2.11644686      -0.40341844
C        2.12623352       2.92434983      -1.20853556
C        2.49619202       2.49393252      -2.48935732
C        2.06604648       1.24715709      -2.95738219
C        1.25029800       0.44425971      -2.15474427
C        3.39629693       3.34279525      -3.31511015
N        3.26600666       3.64589591      -4.57264902
N        2.16409991       3.25518134      -5.26988920
C        1.91364976       3.67372489      -6.54155161
S        3.11838804       4.38760571      -7.55644248
C        1.94075796       4.65850195      -8.76637791
C        0.71704145       4.17922237      -8.34621428
N        0.72141406       3.58352933      -7.09345292
C       -0.50541361       4.26895141      -9.13446336
C       -1.47135444       3.25799247      -9.03034846
C       -2.65839188       3.32743075      -9.76568198
C       -2.88888309       4.41666518     -10.60266543
Br      -4.49715179       4.51931476     -11.59015553
C       -1.94469788       5.43513848     -10.71215595
C       -0.75598372       5.36118097      -9.97924812
C        4.59247409       3.94524664      -2.60758276
H        1.04119500       2.45678151       0.59110854
H        2.45632932       3.88676347      -0.82572045
H        2.37361469       0.88605996      -3.93616964
H        0.91490621      -0.52178967      -2.52480587
H        1.31888402       3.00550701      -4.76178678
H        2.20496293       5.14011933      -9.69612830
H       -1.30033100       2.40710413      -8.37304104
H       -3.39248709       2.53172211      -9.67257996
H       -2.12538127       6.29258919     -11.35526812
H       -0.04270269       6.17771354     -10.06262325
H        4.95912959       3.28160241      -1.82073988
H        4.30345338       4.90699904      -2.17278476
H        5.40285267       4.11610462      -3.32251864
C       -0.88227405      -0.88227405      -0.88227405
C       -1.03426663      -0.57214664      -2.23297392
C       -1.84037633      -1.37761980      -3.04112277
C       -2.48964414      -2.49323038      -2.49660733
C       -2.32015267      -2.80707863      -1.14335445
C       -1.52155220      -1.99429768      -0.33345209
C       -3.30415563      -3.36961164      -3.38043506
N       -4.48976321      -3.84879825      -3.14599013
N       -5.17420433      -3.48941546      -2.02555066
C       -6.47129621      -3.84570831      -1.81192174
S       -7.26355844      -5.10457836      -2.69429944
C       -8.72838731      -4.75150197      -1.88574854
C       -8.53240375      -3.72343534      -0.98663903
N       -7.23303517      -3.24183558      -0.92352557
C       -9.58502984      -3.16597619      -0.14699512
C       -9.26702853      -2.67860572       1.12864777
C      -10.25616840      -2.12673255       1.94818010
C      -11.56914047      -2.05075902       1.48945197
Br     -12.90705171      -1.29558665       2.59031985
C      -11.90231385      -2.52166243       0.22137972
C      -10.91209737      -3.07758987      -0.59475812
C       -2.69570817      -3.72951789      -4.72007742
H       -0.53057837       0.28907931      -2.66536891
H       -1.95503222      -1.12223718      -4.09154384
H       -2.79106425      -3.68924865      -0.71553140
H       -1.39667807      -2.23983830       0.71859396
H       -4.91271458      -2.63603962      -1.53742361
H       -9.62880062      -5.30493576      -2.10747418
H       -8.24152997      -2.72903986       1.49075566
H       -9.98883311      -1.75754251       2.93456063
H      -12.92335334      -2.45395672      -0.14516599
H      -11.18969470      -3.41867147      -1.58926792
H       -1.60770618      -3.80310346      -4.65066224
H       -2.96672252      -2.96345972      -5.45305494
H       -3.08716432      -4.69224598      -5.06206564
C       -0.88227405       0.88227405       0.88227405
C       -1.42161543       2.05724641       0.36052534
C       -2.22849271       2.86504704       1.16557915
C       -2.49644901       2.49352019       2.48951266
C       -1.96403680       1.30491260       3.00163636
C       -1.14831924       0.50277570       2.19820703
C       -3.39770951       3.33799272       3.31850010
N       -3.21367433       3.72491000       4.54596727
N       -2.05128097       3.44231904       5.19557043
C       -1.75379840       3.95209649       6.42303137
S       -2.93934232       4.65605512       7.46703879
C       -1.71248998       5.06863212       8.58451571
C       -0.48801102       4.63611740       8.11834969
N       -0.52830447       3.96524301       6.90484883
C        0.77021956       4.84483372       8.82338698
C        1.78885894       3.88704746       8.71879796
C        3.00998102       4.07023882       9.37446305
C        3.22113834       5.22041470      10.13117116
Br       4.87455092       5.47661278      11.01025664
C        2.22402600       6.18727951      10.23934304
C        1.00165170       5.99963715       9.58645991
C       -4.66765622       3.82546896       2.65217830
H       -1.22283564       2.35131439      -0.66728206
H       -2.63878507       3.78134749       0.74868068
H       -2.19158807       0.98749417       4.01676206
H       -0.73326506      -0.41762514       2.60228248
H       -1.22316688       3.21125096       4.65175997
H       -1.95151015       5.59041024       9.49929017
H        1.63270526       2.98886252       8.12365691
H        3.78500174       3.31417859       9.28263813
H        2.38857902       7.09168984      10.81936522
H        0.24552630       6.77705438       9.66610601
H       -5.03776442       3.09455679       1.92915067
H       -4.46401720       4.77378122       2.14543876
H       -5.44422676       3.99274335       3.40450582
C        0.88227405      -0.88227405       0.88227405
C        1.47778937      -0.34091850       2.02067932
C        2.28462085      -1.14598829       2.82850977
C        2.49084904      -2.49146726       2.49716555
C        1.87746354      -3.03185373       1.36126849
C        1.07873579      -2.22249430       0.54807187
C        3.31163114      -3.34854473       3.39402646
N        4.24605893      -4.18562567       3.05286699
N        4.64317656      -4.29090004       1.75509384
C        5.71444828      -5.04061354       1.37386445
S        6.43040080      -6.24852626       2.38350917
C        7.64336723      -6.51441340       1.20785718
C        7.42850171      -5.69585379       0.11812261
N        6.30345170      -4.88910223       0.20584238
C        8.29268852      -5.66008648      -1.05477386
C        7.73814900      -5.39350891      -2.31467143
C        8.54762492      -5.34041787      -3.45332194
C        9.92033742      -5.54429501      -3.33418492
Br      11.01932010      -5.46268960      -4.86969120
C       10.49047177      -5.80149849      -2.08937371
C        9.67813486      -5.85880717      -0.95249666
C        3.04792606      -3.21752589       4.87985154
H        1.31972294       0.70109942       2.28824445
H        2.74754181      -0.71072043       3.71055100
H        2.00167361      -4.08304944       1.11112124
H        0.60796925      -2.64601550      -0.33606234
H        4.44639481      -3.52673052       1.11305248
H        8.42578073      -7.23952286       1.37590696
H        6.66684712      -5.22679665      -2.41382961
H        8.09714788      -5.13531483      -4.42064773
H       11.56265856      -5.94985133      -1.99003384
H       10.14665684      -6.03883782       0.01213943
H        1.99686021      -2.99054219       5.07406948
H        3.67773874      -2.41987992       5.28561851
H        3.30030430      -4.15281651       5.38835512
