137
Properties=species:S:1:pos:R:3 pbc="F F F"
C        0.00000000       0.00000000       0.00000000
C        0.88234151       0.88234151      -0.88234151
C        0.47841721       2.18075171      -1.18294282
C        1.27957223       2.99875433      -1.99428867
C        0.83072567       4.40022826      -2.30034612
C        2.51207719       2.50898439      -2.47471568
N        3.32496759       3.31545540      -3.28861742
C        4.20214656       4.08510469      -2.72743009
C        4.54041033       4.30001124      -1.23564447
O        4.03509746       3.76472555      -0.27613624
N        5.55091011       5.24206101      -1.22885835
C        5.88303553       5.63035950      -2.52113087
C        6.84364497       6.54383220      -2.89946666
C        7.00590001       6.77383742      -4.27197610
C        6.21183873       6.09205153      -5.21799342
C        5.24183694       5.17116657      -4.82262199
C        5.10463479       4.96536539      -3.46512224
C        2.89733119       1.18148151      -2.19351348
C        4.18731616       0.62431550      -2.72726953
C        2.07923333       0.37883729      -1.38416527
H       -0.45977975       2.56093016      -0.78751631
H        0.95045583       4.62308311      -3.36552949
H        1.40958517       5.11835107      -1.71136439
H       -0.22904501       4.54003995      -2.06158202
H        5.97327895       5.57904679      -0.37642910
H        7.45508377       7.06803168      -2.17331813
H        7.75637414       7.48838441      -4.60550628
H        4.62132546       4.63645680      -5.53350298
H        4.26420400      -0.45283817      -2.54470079
H        5.03907525       1.10979622      -2.24067810
H        4.25208344       0.77382104      -3.80996214
H        2.38027840      -0.63845348      -1.14721171
C        6.40885136       6.35280531      -6.62041757
C        6.57384944       6.57118660      -7.79494779
Br       6.84063737       6.92429068      -9.69406383
C       -0.88234151      -0.88234151      -0.88234151
C       -1.55371149      -0.32215770      -1.96624256
C       -2.36857433      -1.12253028      -2.78151062
C       -3.07814646      -0.50126058      -3.95189301
C       -2.47575084      -2.50379533      -2.51623109
N       -3.28808072      -3.31814577      -3.32281391
C       -2.76948489      -3.87429182      -4.37090462
C       -1.33508290      -3.80154502      -4.93943812
O       -0.38996918      -3.19410230      -4.49188777
N       -1.36022400      -4.58354957      -6.07805591
C       -2.62036076      -5.13293860      -6.28122653
C       -3.01508197      -5.96427427      -7.30758759
C       -4.34635932      -6.40096824      -7.30438597
C       -5.23662309      -5.99866448      -6.28659612
C       -4.82569830      -5.15574565      -5.25418157
C       -3.50970474      -4.74188163      -5.28353605
C       -1.81950279      -3.05632720      -1.39649619
C       -1.95055935      -4.51781843      -1.07052340
C       -1.01340890      -2.23736968      -0.59145731
H       -1.44556230       0.73773137      -2.18083578
H       -4.12303626      -0.82584328      -3.99018889
H       -2.57753316      -0.77640893      -4.88535854
H       -3.08528134       0.59157338      -3.87886901
H       -0.54789749      -4.71950779      -6.66134955
H       -2.33156912      -6.27474905      -8.09011540
H       -4.69110629      -7.05928756      -8.09987097
H       -5.49389570      -4.83500072      -4.46238882
H       -1.50630878      -4.75242684      -0.09733100
H       -1.44039591      -5.12146127      -1.82769240
H       -3.00516128      -4.80813731      -1.02256803
H       -0.48896142      -2.66123216       0.26115694
C       -6.59709276      -6.46972822      -6.31525326
C       -7.73648611      -6.86424410      -6.33925362
Br      -9.57878878      -7.50214292      -6.37806017
C       -0.88234151       0.88234151       0.88234151
C       -2.07408779       1.39348241       0.37454154
C       -2.89066533       2.20686317       1.17508673
C       -4.17745042       2.74192727       0.61192236
C       -2.51332029       2.47487970       2.50757727
N       -3.31977243       3.28793195       3.32133603
C       -4.25617302       2.73455857       4.02394974
C       -4.68303531       1.25446302       4.13856770
O       -4.20034466       0.29793966       3.57767493
N       -5.74290498       1.25419097       5.02473352
C       -6.02012900       2.53921956       5.47517733
C       -7.00115992       2.92024986       6.36553405
C       -7.09120332       4.28323138       6.67727882
C       -6.20795808       5.21748139       6.09644422
C       -5.22036234       4.81978854       5.19547463
C       -5.15568878       3.47185852       4.90757512
C       -1.28826887       1.98120693       3.00285037
C       -0.84589579       2.28638827       4.40661713
C       -0.48438613       1.17373432       2.18411543
H       -2.37198744       1.16115176      -0.64447249
H       -4.29020647       3.80619044       0.84267152
H       -5.02753044       2.18873152       1.02303867
H       -4.20484154       2.64660793      -0.47887251
H       -6.22752919       0.40997596       5.29124968
H       -7.68023407       2.20302542       6.81317408
H       -7.85415912       4.61840845       7.37769726
H       -4.53151084       5.52165246       4.73812195
H        0.18399231       1.95778678       4.58227215
H       -1.49056541       1.77247257       5.12651159
H       -0.87726131       3.36467370       4.59393160
H        0.45117424       0.77361776       2.56659311
C       -6.32936672       6.60993003       6.44277750
C       -6.43104646       7.77610576       6.73283161
Br      -6.59545400       9.66171329       7.20182459
C        0.88234151      -0.88234151       0.88234151
C        0.29708700      -1.85014573       1.69487901
C        1.09753792      -2.66408231       2.51099499
C        0.44791580      -3.70889168       3.37449257
C        2.50018086      -2.51848813       2.47710828
N        3.31499792      -3.32530074       3.28874176
C        3.73133745      -4.45976811       2.82357578
C        3.47995032      -5.13759779       1.45851793
O        2.82813484      -4.71714464       0.53067977
N        4.16264557      -6.33696558       1.52221832
C        4.80624408      -6.48317558       2.74510624
C        5.58118838      -7.54466462       3.16109082
C        6.13680559      -7.46980143       4.44510651
C        5.90464417      -6.34831314       5.26892638
C        5.11722910      -5.28111547       4.83728094
C        4.58347123      -5.38273902       3.56891218
C        3.08223612      -1.51315740       1.67693266
C        4.57176565      -1.31269100       1.65444455
C        2.26328979      -0.70693111       0.87201498
H       -0.78250723      -1.97498925       1.69618470
H        0.86255493      -3.68896006       4.38755344
H        0.59670388      -4.70235400       2.94024275
H       -0.62966324      -3.53565330       3.46658690
H        4.17413333      -6.99636966       0.75825185
H        5.76092879      -8.40694654       2.52855824
H        6.75486850      -8.29053751       4.80485882
H        4.92667168      -4.40998422       5.45462934
H        4.84549883      -0.40583156       1.10473623
H        5.06042044      -2.16213865       1.16699048
H        4.96053501      -1.20322079       2.67211082
H        2.70733924       0.05620581       0.23790319
C        6.49436723      -6.30576267       6.58194434
C        6.98826030      -6.27012665       7.68159688
Br       7.78684362      -6.21250623       9.45964203
