194
Properties=species:S:1:pos:R:3 pbc="F F F"
N        1.35162647       1.47924543      -7.07429769
C        1.62046615       2.51490662      -6.65008648
C        1.94886346       3.78000390      -6.13189726
C        2.71509384       4.63367584      -6.86271835
N        3.23401638       4.25528800      -8.09188523
N        2.96450803       5.92780801      -6.39382204
C        2.28784161       6.40604532      -5.28900280
C        1.50361931       5.64413249      -4.50766316
C        0.77417248       6.17581465      -3.40547857
N        0.15789909       6.57318393      -2.50806927
C        1.38715566       4.16044956      -4.77883677
H        0.30940407       3.93567756      -4.81599471
C        2.01407912       3.34156549      -3.65024246
C        1.21500479       2.52137609      -2.83608460
C        1.79171271       1.79171271      -1.79171271
C        3.16162801       1.86267005      -1.54164296
C        3.96437369       2.67248492      -2.34153613
C        3.39049230       3.40079711      -3.37908250
F        4.18626558       4.18230658      -4.12135262
S        2.59624663       8.09458170      -5.01963478
C        3.76096711       8.14216482      -6.30244404
C        4.48271324       9.24266737      -6.56281862
C        5.50645078       9.36483748      -7.60390877
C        6.84211861       9.06427208      -7.30942349
C        7.81706529       9.19288126      -8.30153260
C        7.47702440       9.61902484      -9.58607309
C        6.14689317       9.91746951      -9.88325808
C        5.17350660       9.78860805      -8.89499475
F        3.90216100      10.09151574      -9.19803020
C        3.83486041       6.83087467      -7.01300254
O        4.56831005       6.59771943      -7.96678317
H        3.45807745       3.26987274      -8.20986479
H        4.00093398       4.86477676      -8.40146251
H        0.14205016       2.45174555      -3.00644994
H        3.60961454       1.29667326      -0.72860501
H        5.03300562       2.74403176      -2.16062860
H        4.33610961      10.14920404      -5.97915052
H        7.12069060       8.72956210      -6.31328816
H        8.23609946       9.71925826     -10.35771921
H        5.86192578      10.24852170     -10.87696501
C        9.18995973       8.88687304      -7.99311760
C       10.33975883       8.63059115      -7.73482004
Br      12.19888672       8.21620502      -7.31717473
N       -4.10016864      -6.09627161       0.29127066
C       -4.68991361      -5.55787123      -0.53767441
C       -5.41030824      -4.90019585      -1.55026053
C       -6.23326918      -5.61083025      -2.36738860
N       -6.33017063      -6.99016678      -2.26085220
N       -7.02417335      -4.94925313      -3.31271160
C       -7.11503435      -3.57132117      -3.29653421
C       -6.35078749      -2.78287357      -2.52175390
C       -6.50322602      -1.36688377      -2.48535591
N       -6.60429500      -0.21421931      -2.42063798
C       -5.27065425      -3.39695406      -1.65883369
H       -5.42046273      -2.99730379      -0.64330982
C       -3.87883611      -2.98669763      -2.14035335
C       -3.05515197      -2.18129678      -1.33601674
C       -1.79171271      -1.79171271      -1.79171271
C       -1.32818177      -2.19404635      -3.04371289
C       -2.13551850      -2.99230587      -3.85057037
C       -3.39383696      -3.37789236      -3.39864261
F       -4.15298968      -4.13319333      -4.20374177
S       -8.31012323      -2.98644045      -4.41389943
C       -8.59573675      -4.58206628      -5.02777293
C       -9.42102674      -4.80559638      -6.06157610
C       -9.69931002      -6.11194487      -6.66394214
C       -8.91496711      -6.57183251      -7.72901456
C       -9.19052893      -7.81280688      -8.30814334
C      -10.24080246      -8.60262555      -7.83869431
C      -11.02297287      -8.14818078      -6.77646711
C      -10.74851169      -6.91121570      -6.19738202
F      -11.51963112      -6.48747166      -5.18460417
C       -7.80591176      -5.59996554      -4.27286033
O       -7.83325907      -6.80500172      -4.49455186
H       -5.49446563      -7.48524766      -1.95810169
H       -6.75438807      -7.42168859      -3.09109658
H       -3.39468557      -1.84905010      -0.35650999
H       -0.34659851      -1.88969863      -3.39859566
H       -1.79400506      -3.31317669      -4.83048423
H       -9.95278990      -3.98054199      -6.53113228
H       -8.09252993      -5.96747421      -8.10353672
H      -10.45506858      -9.56813348      -8.28987487
H      -11.84313393      -8.74864490      -6.39563366
C       -8.38413613      -8.27985743      -9.40595682
C       -7.70878215      -8.67101227     -10.32537560
Br      -6.61679190      -9.30347656     -11.81199802
N       -5.30984367      -0.46890522       5.06423114
C       -4.83941026       0.51572159       5.43032739
C       -4.26475898       1.71847856       5.87752708
C       -4.97718323       2.55183837       6.68246642
N       -6.29075292       2.26664049       7.02379621
N       -4.37733576       3.70138611       7.20741621
C       -3.01764298       3.89821509       7.06703166
C       -2.22802366       3.12716060       6.30023071
C       -0.81899723       3.32005572       6.21641275
N        0.33059216       3.43899055       6.13075390
C       -2.83680368       2.01623215       5.47340617
H       -2.25506643       1.10813201       5.69787791
C       -2.71683972       2.31098655       3.97806081
C       -1.91423616       1.50355436       3.15467496
C       -1.79171271       1.79171271       1.79171271
C       -2.46069891       2.87740856       1.22783354
C       -3.25910174       3.68557794       2.03371506
C       -3.37909218       3.40080780       3.39047194
F       -4.14220144       4.20532597       4.14239737
S       -2.46359378       5.27243225       7.97443707
C       -4.08203261       5.69058720       8.43295614
C       -4.35540170       6.80543712       9.12736040
C       -5.69081245       7.25256942       9.53181516
C       -6.43050127       8.09384561       8.69146730
C       -7.69863827       8.52721982       9.08562106
C       -8.23975162       8.13253835      10.30983236
C       -7.50616029       7.29289298      11.14856749
C       -6.24178344       6.85917192      10.75615405
F       -5.54802018       6.06150457      11.58218220
C       -5.06122913       4.67590287       7.94160561
O       -6.26985899       4.72412913       8.13882452
H       -6.84249812       1.76015005       6.33516681
H       -6.79025712       3.08582939       7.39108673
H       -1.37711395       0.65278002       3.57035168
H       -2.36401760       3.10234802       0.16852718
H       -3.78548044       4.53804630       1.61413925
H       -3.55335225       7.47085684       9.44025509
H       -6.02170851       8.40762621       7.73420614
H       -9.22651248       8.47028202      10.61628243
H       -7.91042135       6.97313231      12.10385883
C       -8.45396798       9.39570237       8.22028003
C       -9.08655661      10.12305650       7.49555691
Br     -10.10939892      11.29912661       6.32374094
N        3.51993499      -6.45491681      -0.06968221
C        4.22826040      -5.90516578       0.65203306
C        5.09350529      -5.23362517       1.53363416
C        5.92550528      -5.94565906       2.34032368
N        5.89400083      -7.33205632       2.35513247
N        6.85474767      -5.28256871       3.14882169
C        7.06093225      -3.92556164       2.99639583
C        6.29776690      -3.13820705       2.21944102
C        6.56639413      -1.75092097       2.03815060
N        6.75895409      -0.62246710       1.85773110
C        5.09336200      -3.72015286       1.51292714
H        5.18126890      -3.42433854       0.45546890
C        3.79266943      -3.14218523       2.07103242
C        2.96923142      -2.33498689       1.26824717
C        1.79171271      -1.79171271       1.79171271
C        1.41444763      -2.04072790       3.11076549
C        2.22251407      -2.83910118       3.91677948
C        3.39564592      -3.37761036       3.39711564
F        4.15941625      -4.12902217       4.20148636
S        8.40063031      -3.36160307       3.94822972
C        8.60511763      -4.91870451       4.68175382
C        9.50121306      -5.12927592       5.65771024
C        9.72203553      -6.39972009       6.35344142
C        9.00417456      -6.69182867       7.51981096
C        9.22570591      -7.89915210       8.18662114
C       10.15633909      -8.82072246       7.70506078
C       10.87184621      -8.53356750       6.54220705
C       10.65106867      -7.33032018       5.87572056
F       11.35761017      -7.06836894       4.76572784
C        7.66431915      -5.91911138       4.09530709
O        7.60932923      -7.09811105       4.42537236
H        4.99450493      -7.77098177       2.17232828
H        6.35549659      -7.72887784       3.18279881
H        3.24295151      -2.12067239       0.23662176
H        0.49983909      -1.61691746       3.51813625
H        1.94783862      -3.04191161       4.94791576
H       10.14293110      -4.32042245       6.00111062
H        8.27486411      -5.98359660       7.90508014
H       10.32862564      -9.75998568       8.22446561
H       11.59864191      -9.23826265       6.15050793
C        8.48841723      -8.19351437       9.38801877
C        7.87093797      -8.44004276      10.39418929
Br       6.87252623      -8.83865833      12.02108192
C       -0.00445707       0.01189536      -1.78238275
H       -0.66409135       0.67374010      -2.43557963
H        0.65740317      -0.63156657      -2.45157240
C       -0.90989263      -0.90692880      -0.91072765
C        0.90977584       0.90977584      -0.90977584
C       -0.00465871       1.77757030       0.00794375
H       -0.66225468       2.44313916      -0.64384735
H        0.64322798       2.43503045       0.67728295
C       -1.78241447       0.00034974      -0.00472694
H       -2.45427497      -0.65498947       0.64260836
H       -2.43311707       0.67328779      -0.65473579
C       -0.91132561       0.90220522       0.91563759
C       -0.01476271      -0.02253852       1.78660255
H       -0.67934791      -0.69751639       2.42135241
H        0.63392994       0.61504881       2.47327442
C        0.01484550      -1.77751727      -0.01636693
H        0.67870853      -2.42144646      -0.68295456
H       -0.62264859      -2.45592969       0.64226336
C        1.78714474       0.01002794       0.00389507
H        2.44202412       0.67113390       0.66197326
H        2.45385902      -0.65136977      -0.64189061
C        0.91606151      -0.90478549       0.90901405
