158
Properties=species:S:1:pos:R:3 pbc="F F F"
C        1.79212265       1.79212265      -1.79212265
C        1.20623785       2.75637568      -2.60907817
C        2.01319961       3.56681746      -3.41434217
C        3.40855111       3.41941976      -3.40669657
C        3.97772150       2.43364867      -2.58765151
C        3.17479851       1.62384289      -1.77812417
C        4.27362285       4.25238288      -4.23501192
C        3.97824465       5.54921416      -4.59893296
S        5.23504656       6.18487255      -5.56777432
C        6.09796154       4.69007173      -5.43614597
N        7.29079537       4.45748823      -6.02995218
N        7.94597110       5.34979347      -6.96183440
C        9.06935823       4.80228453      -7.45089287
H        9.44736747       3.82311144      -7.17269073
C        9.88431699       5.54616774      -8.43096766
C        9.45890996       6.74941528      -9.01398486
C       10.25616386       7.42437035      -9.94289210
C       11.49531080       6.90193477     -10.30428792
C       11.92637676       5.70556367      -9.73294086
C       11.13112473       5.02904769      -8.80649213
N        5.49147417       3.78255431      -4.69372527
H        0.12800987       2.88352595      -2.63448082
H        1.53727822       4.29921005      -4.06143262
H        5.05905782       2.29668636      -2.58144471
H        3.64108711       0.87055636      -1.14984660
H        3.11956136       6.15352345      -4.35226961
H        7.68744873       3.53231084      -5.93345981
H        8.49096072       7.16262972      -8.73625541
H        9.90120352       8.35404496     -10.37585894
H       12.11196671       7.42957365     -11.02412298
H       11.47613248       4.09904928      -8.36481656
C       13.20792991       5.16412434     -10.10451181
C       14.28123068       4.71066890     -10.41570248
Br      16.01666724       3.97746980     -10.91887147
C       -1.79212265      -1.79212265      -1.79212265
C       -1.24267560      -2.90581344      -2.42320267
C       -2.05024224      -3.71600339      -3.22811362
C       -3.41006818      -3.41905103      -3.40554824
C       -3.94064051      -2.28567790      -2.77270327
C       -3.13759627      -1.47516309      -1.96400621
C       -4.27521600      -4.24798593      -4.23781573
C       -4.10161368      -5.60360390      -4.42117419
S       -5.31422845      -6.21260181      -5.46086318
C       -5.99879090      -4.62853760      -5.59685074
N       -7.08355445      -4.34226014      -6.35242119
N       -7.73760153      -5.26495105      -7.25504639
C       -8.72698373      -4.66272379      -7.93282811
H       -9.01136168      -3.62202366      -7.80978431
C       -9.51551164      -5.42755568      -8.91838507
C       -9.17862011      -6.73140981      -9.31228018
C       -9.94684771      -7.42393774     -10.25264086
C      -11.06727070      -6.81849052     -10.81577226
C      -11.40931998      -5.52222507     -10.43333623
C      -10.64261328      -4.82823877      -9.49581249
N       -5.37049771      -3.70853853      -4.88871751
H       -0.19140113      -3.15071539      -2.30390011
H       -1.59953853      -4.56845715      -3.72992522
H       -4.99172167      -2.03308442      -2.91238281
H       -3.57423293      -0.60541133      -1.48184581
H       -3.35415151      -6.26268347      -4.00851944
H       -7.37326253      -3.37484562      -6.40511123
H       -8.30353787      -7.20995423      -8.87635375
H       -9.66251390      -8.43206053     -10.53653298
H      -11.66200584      -7.35981106     -11.54384643
H      -10.91802696      -3.81981530      -9.20215605
C      -12.56818653      -4.89468250     -11.01369703
C      -13.53873726      -4.36911560     -11.49974919
Br     -15.10803571      -3.51931837     -12.28565443
C       -1.79212265       1.79212265       1.79212265
C       -3.17575484       1.76236238       1.63357449
C       -3.98437777       2.56691223       2.44306925
C       -3.41570270       3.40362203       3.41534272
C       -2.02005713       3.42927174       3.54969282
C       -1.20817537       2.62359586       2.74499434
C       -4.23559471       4.25136062       4.27406233
C       -5.51807036       3.93694591       4.67137550
S       -6.14181259       5.17794620       5.66793465
C       -4.65786792       6.05525716       5.51105416
N       -4.43312854       7.25849280       6.08661444
N       -5.42495791       8.04564413       6.78699693
C       -4.92528952       9.23247100       7.16477510
H       -3.90468957       9.55554547       6.98293460
C       -5.78060483      10.19519610       7.88565147
C       -7.15939499      10.00257020       8.06034490
C       -7.93926653      10.93895030       8.74520948
C       -7.34824888      12.08715287       9.26613174
C       -5.97946037      12.28958192       9.09583901
C       -5.19916022      11.35670522       8.41079911
N       -3.74663895       5.44384804       4.77726676
H       -3.63629566       1.12623236       0.88348862
H       -5.06047946       2.54677186       2.29066959
H       -1.56202910       4.08485365       4.29030615
H       -0.13013613       2.65924085       2.87211308
H       -6.11273502       3.06547320       4.44714620
H       -3.55073248       7.71187705       5.89060985
H       -7.62753225       9.10745226       7.65486133
H       -9.00313957      10.76194595       8.86602190
H       -7.95644037      12.81062687       9.79859610
H       -4.13331436      11.52157025       8.28511370
C       -5.36611870      13.47578781       9.63465955
C       -4.85244505      14.46923525      10.08592175
Br      -4.02187821      16.07555573      10.81557457
C        1.79212265      -1.79212265       1.79212265
C        3.17553263      -1.76497432       1.63118475
C        3.98416393      -2.56952271       2.44067261
C        3.41572251      -3.40362267       3.41532226
C        2.02026515      -3.42668102       3.55207551
C        1.20838506      -2.62099298       2.74738752
C        4.23563321      -4.25129552       4.27408893
C        5.51930989      -3.93838224       4.66869965
S        6.14263982      -5.17875031       5.66630330
C        4.65695010      -6.05381039       5.51341876
N        4.43115158      -7.25568859       6.09139561
N        5.42283339      -8.04333335       6.79143223
C        4.92179938      -9.22867160       7.17206465
H        3.90034799      -9.55032384       6.99249781
C        5.77670532     -10.19162373       7.89312334
C        7.15611318     -10.00103851       8.06515840
C        7.93555913     -10.93757882       8.75028835
C        7.34348391     -12.08389607       9.27415351
C        5.97406854     -12.28429391       9.10651884
C        5.19418777     -11.35125656       8.42122021
N        3.74551469      -5.44210034       4.78013872
H        3.63587729      -1.13089466       0.87924469
H        5.06003844      -2.55146292       2.28641953
H        1.56238434      -4.08023279       4.29457177
H        0.13050396      -2.65459681       2.87638930
H        6.11506671      -3.06829851       4.44198920
H        3.54765934      -7.70790829       5.89765174
H        7.62507594      -9.10740181       7.65736810
H        8.99993309     -10.76217278       8.86900155
H        7.95135218     -12.80749780       9.80681336
H        4.12785327     -11.51452822       8.29761682
C        5.35963542     -13.46854630       9.64838434
C        4.84504768     -14.46035767      10.10219671
Br       4.01300282     -16.06403277      10.83597292
C       -0.00445707       0.01189536      -1.78238275
H       -0.66409135       0.67374010      -2.43557963
H        0.65740317      -0.63156657      -2.45157240
C       -0.90989263      -0.90692880      -0.91072765
C        0.90977584       0.90977584      -0.90977584
C       -0.00465871       1.77757030       0.00794375
H       -0.66225468       2.44313916      -0.64384735
H        0.64322798       2.43503045       0.67728295
C       -1.78241447       0.00034974      -0.00472694
H       -2.45427497      -0.65498947       0.64260836
H       -2.43311707       0.67328779      -0.65473579
C       -0.91132561       0.90220522       0.91563759
C       -0.01476271      -0.02253852       1.78660255
H       -0.67934791      -0.69751639       2.42135241
H        0.63392994       0.61504881       2.47327442
C        0.01484550      -1.77751727      -0.01636693
H        0.67870853      -2.42144646      -0.68295456
H       -0.62264859      -2.45592969       0.64226336
C        1.78714474       0.01002794       0.00389507
H        2.44202412       0.67113390       0.66197326
H        2.45385902      -0.65136977      -0.64189061
C        0.91606151      -0.90478549       0.90901405
