137
Properties=species:S:1:pos:R:3 pbc="F F F"
C        0.00000000       0.00000000       0.00000000
C        0.88221863       0.88221863      -0.88221863
C        0.29633383       1.84647166      -1.69917414
C        1.10329559       2.65691344      -2.50443815
C        2.49864709       2.50951574      -2.49679255
C        3.06781748       1.52374464      -1.67774749
C        2.26489449       0.71393886      -0.86822014
C        3.36371883       3.34247886      -3.32510790
C        3.06834063       4.63931014      -3.68902894
S        4.32514254       5.27496853      -4.65787030
C        5.18805752       3.78016771      -4.52624195
N        6.38089134       3.54758421      -5.12004815
N        7.03606708       4.43988945      -6.05193038
C        8.15945421       3.89238050      -6.54098884
H        8.53746345       2.91320741      -6.26278671
C        8.97441297       4.63626372      -7.52106363
C        8.54900594       5.83951125      -8.10408083
C        9.34625984       6.51446633      -9.03298807
C       10.58540677       5.99203075      -9.39438390
C       11.01647274       4.79565965      -8.82303683
C       10.22122071       4.11914366      -7.89658810
N        4.58157015       2.87265028      -3.78382125
H       -0.78189415       1.97362192      -1.72457679
H        0.62737420       3.38930603      -3.15152860
H        4.14915380       1.38678234      -1.67154069
H        2.73118308      -0.03934767      -0.23994258
H        2.20965734       5.24361943      -3.44236558
H        6.77754471       2.62240681      -5.02355578
H        7.58105670       6.25272570      -7.82635138
H        8.99129950       7.44414094      -9.46595491
H       11.20206269       6.51966963     -10.11421896
H       10.56622845       3.18914525      -7.45491253
C       12.29802589       4.25422031      -9.19460778
C       13.37132665       3.80076487      -9.50579845
Br      15.10676321       3.06756578     -10.00896745
C       -0.88221863      -0.88221863      -0.88221863
C       -0.34382904      -2.02084442      -1.47730617
C       -1.15150941      -2.83097532      -2.28216245
C       -2.50045610      -2.50904440      -2.49545487
C       -3.01958873      -1.35110923      -1.89861164
C       -2.21650228      -0.54047479      -1.09007642
C       -3.36551608      -3.33728012      -3.32850939
C       -3.21760666      -4.69996126      -3.47911178
S       -4.42076239      -5.30547379      -4.53174518
C       -5.06761423      -3.71051712      -4.71633582
N       -6.12953762      -3.41770772      -5.50127837
N       -6.78413707      -4.34568694      -6.39806289
C       -7.74550107      -3.73741324      -7.10990925
H       -8.00970693      -2.68845632      -7.01529432
C       -8.52931394      -4.50654665      -8.09587973
C       -8.21257702      -5.82555261      -8.45446840
C       -8.97548772      -6.52186407      -9.39636245
C      -10.07020496      -5.90508257      -9.99653389
C      -10.39201827      -4.59380137      -9.64934957
C       -9.63053554      -3.89606159      -8.71035534
N       -4.43467038      -2.78891489      -4.01445641
H        0.69908178      -2.28543921      -1.32994713
H       -0.70888355      -3.70356603      -2.75575925
H       -4.06170457      -1.07927433      -2.06649792
H       -2.64427214       0.34867817      -0.63618402
H       -2.49363806      -5.36567855      -3.03632573
H       -6.39692181      -2.44571556      -5.58086993
H       -7.35761223      -6.31303162      -7.98948993
H       -8.70718862      -7.54176048      -9.65244624
H      -10.66093525      -6.44933151     -10.72568451
H       -9.89012021      -2.87584211      -8.44432392
C      -11.52431287      -3.95449067     -10.26805044
C      -12.47260960      -3.41906796     -10.78621242
Br     -14.00592520      -2.55333472     -11.62403652
C       -0.88221863       0.88221863       0.88221863
C       -2.09869774       0.39184098       1.35144092
C       -2.90531528       1.19735466       2.16197724
C       -2.50069505       2.49530707       2.50895325
C       -1.27910110       2.97518151       2.01502701
C       -0.46783520       2.17170564       1.20751266
C       -3.32146016       3.35575995       3.35408547
C       -4.16937884       2.89039789       4.33690297
S       -4.95230341       4.20296316       5.10271479
C       -4.10570045       5.31132274       4.07744398
N       -4.26703863       6.65331774       4.12816734
N       -5.25418632       7.34440622       4.92929436
C       -5.22990642       8.66591765       4.69699949
H       -4.54802682       9.15649912       4.00893163
C       -6.17004880       9.55519130       5.40650022
C       -7.21667506       9.07047853       6.20544443
C       -8.09123331       9.94331356       6.85916737
C       -7.93111778      11.31965549       6.72104815
C       -6.89601297      11.81178605       5.92737020
C       -6.02264823      10.94199587       5.27230838
N       -3.27283598       4.73310323       3.23210247
H       -2.43356277      -0.60773437       1.09047617
H       -3.86104925       0.80600303       2.50115655
H       -0.95748491       3.98659736       2.26339455
H        0.47562798       2.56598253       0.84142344
H       -4.36684739       1.87766154       4.65113342
H       -3.76363257       7.20967773       3.45019701
H       -7.34764464       7.99565533       6.31683381
H       -8.89058680       9.53900622       7.47180232
H       -8.61070141      11.99384633       7.23140353
H       -5.21777137      11.33438176       4.65813311
C       -6.72804607      13.23475712       5.78405080
C       -6.58737379      14.42649539       5.66402080
Br      -6.35991862      16.35343538       5.46994243
C        0.88221863      -0.88221863       0.88221863
C        1.97147795      -1.54694951       0.32355217
C        2.78172023      -2.35191540       1.13101154
C        2.50923420      -2.49583047       2.49989070
C        1.39994874      -1.82931099       3.04004988
C        0.58955071      -1.02046292       2.23703986
C        3.33884540      -3.32736821       3.36509197
C        4.68665203      -3.54196884       3.16805884
S        5.29937739      -4.56933909       4.38926489
C        3.72728396      -4.65898618       5.10819703
N        3.44819401      -5.38654987       6.21377982
N        4.36577419      -6.29458673       6.86752599
C        3.77047168      -6.93982692       7.88252495
H        2.73851353      -6.78975214       8.18519190
C        4.53135042      -7.92481610       8.67557379
C        5.81982818      -8.35208820       8.32068164
C        6.50892519      -9.29082394       9.09396512
C        5.91539989      -9.81875938      10.23766214
C        4.63438305      -9.40299366      10.59779250
C        3.94380245      -8.46703317       9.82611685
N        2.80901123      -3.94489821       4.48413223
H        2.19709932      -1.45386803      -0.73466279
H        3.61447733      -2.88008289       0.67364861
H        1.16622519      -1.94260705       4.09864458
H       -0.26118124      -0.51186638       2.68109285
H        5.33841650      -3.15804723       2.39917862
H        2.48606598      -5.41353344       6.52390788
H        6.28898056      -7.94376565       7.42738757
H        7.50508514      -9.60101101       8.79529919
H        6.45406058     -10.54568206      10.83620863
H        2.94735523      -8.14725905      10.11567196
C        4.01921410      -9.94692461      11.78071528
C        3.50401011     -10.40246677      12.77141310
Br       2.67096882     -11.13903993      14.37328769
