198
Properties=species:S:1:pos:R:3 pbc="F F F"
C        1.79195554       1.79195554      -1.79195554
C        1.39650901       3.10121842      -2.07029158
C        2.19897615       3.91573472      -2.87262743
C        3.39462025       3.41435899      -3.38840345
O        4.17387883       4.20829300      -4.18299083
C        3.78815215       2.10000261      -3.10960856
C        5.04893419       1.57219277      -3.67001990
N        5.33994268       0.30864299      -3.63224459
C        6.54304358      -0.10891207      -4.22668215
C        7.35551116      -1.00443975      -3.53343753
C        8.54446814      -1.47498207      -4.10029683
C        8.93372700      -1.07515199      -5.38513805
N       10.13686899      -1.53687553      -5.95335109
C       10.24046728      -2.81579260      -6.14411267
C       11.44813225      -3.40064327      -6.76155477
C       11.54355569      -4.79366127      -6.83495584
C       12.66670237      -5.37187975      -7.42893038
C       13.68721086      -4.57719831      -7.95170871
C       13.58932480      -3.18716314      -7.87740596
C       12.47479201      -2.60222639      -7.28084536
O       12.44501824      -1.23501578      -7.24293566
C        8.12719054      -0.16883936      -6.09211349
C        8.54221664       0.34818753      -7.44080721
C        6.93217700       0.29212870      -5.51101122
C        2.98172920       1.28341560      -2.30939809
H        0.46542182       3.49401924      -1.66851089
H        1.87430838       4.93072362      -3.08385332
H        3.74436269       5.07330785      -4.29509773
H        5.73021252       2.30939986      -4.13267330
H        7.06031153      -1.33655759      -2.54201068
H        9.17033993      -2.15565542      -3.53005173
H        9.43255718      -3.51687019      -5.86144478
H       10.75534880      -5.42442741      -6.43352036
H       14.55985477      -5.02707123      -8.41827155
H       14.37838993      -2.55941685      -8.28295285
H       11.62667046      -0.97574082      -6.75915239
H        7.73055156       0.90320557      -7.92347542
H        8.81292454      -0.47637707      -8.10783682
H        9.39627836       1.02554036      -7.33396077
H        6.29482816       0.97344924      -6.06927393
H        3.28601954       0.26211748      -2.09294990
C       12.77216976      -6.80606820      -7.50363058
C       12.86049870      -8.00720103      -7.56619200
Br      13.00331913      -9.94933122      -7.66734852
C       -1.79195554      -1.79195554      -1.79195554
C       -1.37632657      -3.08716603      -2.10452641
C       -2.17855201      -3.90168010      -2.90710620
C       -3.39410281      -3.41447440      -3.38880548
O       -4.17338051      -4.20809839      -4.18368375
C       -3.80790968      -2.11414281      -3.07571085
C       -5.09000016      -1.60094655      -3.60020015
N       -5.40519538      -0.34454421      -3.53109066
C       -6.62812923       0.06028416      -4.09296859
C       -7.44400511       0.92525303      -3.36575685
C       -8.65329375       1.38278652      -3.89927568
C       -9.06047061       1.00072863      -5.18397108
N      -10.28379100       1.44918663      -5.71874018
C      -10.41658207       2.72927757      -5.88148285
C      -11.64786286       3.30169836      -6.46287925
C      -11.77237054       4.69368149      -6.50616119
C      -12.91856042       5.26071793      -7.06591051
C      -13.93347451       4.45607102      -7.58431776
C      -13.80654613       3.06710149      -7.54012298
C      -12.66878106       2.49312381      -6.97775374
O      -12.61112706       1.12631302      -6.96812407
C       -8.25058743       0.12513151      -5.92500875
C       -8.68248851      -0.37333086      -7.27539201
C       -7.03514632      -0.32299155      -5.37717904
C       -3.00181413      -1.29743662      -2.27529214
H       -0.42968789      -3.46893380      -1.72933027
H       -1.83815323      -4.90549891      -3.14523317
H       -3.72914460      -5.06184762      -4.32177603
H       -5.76574365      -2.34246859      -4.06407345
H       -7.13544538       1.24354320      -2.37386243
H       -9.28087585       2.03920456      -3.30306495
H       -9.61718404       3.44081864      -5.60076638
H      -10.98886885       5.33218424      -6.10775714
H      -14.82413695       4.89735617      -8.02427430
H      -14.59104885       2.43168156      -7.94255864
H      -11.77817176       0.87410859      -6.50601886
H       -7.86990803      -0.90212086      -7.78520365
H       -8.98294818       0.45865658      -7.92009268
H       -9.52060604      -1.06981866      -7.16535479
H       -6.39583640      -0.98006194      -5.96165300
H       -3.32186312      -0.28700226      -2.03222154
C      -13.05395111       6.69367743      -7.10945845
C      -13.16734082       7.89378101      -7.14592986
Br     -13.35068239       9.83424701      -7.20490104
C       -1.79195554       1.79195554       1.79195554
C       -3.14469625       1.94102624       1.48229652
C       -3.95913141       2.74247714       2.28572976
C       -3.41374966       3.38698897       3.39664406
O       -4.20881430       4.18040761       4.17594075
C       -2.05604967       3.23768456       3.70402910
C       -1.48314383       3.93368337       4.87431966
N       -0.20262020       4.01211108       5.06609897
C        0.25373700       4.72925313       6.18529752
C        1.25876006       4.17039832       6.97287067
C        1.76894292       4.86289628       8.07582954
C        1.29808542       6.14170389       8.40009460
N        1.80043653       6.83602537       9.51775572
C        3.06432023       7.12790198       9.50520559
C        3.68550056       7.88057349      10.61397082
C        5.07153040       8.06351692      10.59286372
C        5.68176746       8.78566220      11.61985826
C        4.92526932       9.32796211      12.65902846
C        3.54209536       9.14414608      12.67751691
C        2.92601794       8.41961983      11.65980910
O        1.56765261       8.27906764      11.74152307
C        0.28168679       6.71388694       7.61826452
C       -0.30885400       8.04960267       7.97275471
C       -0.21829264       6.00745265       6.50957163
C       -1.24001544       2.43818477       2.89634268
H       -3.57174188       1.43882181       0.61738827
H       -5.00879543       2.85208150       2.02800839
H       -5.10922393       4.19417647       3.80936786
H       -2.20266866       4.39350873       5.57610829
H        1.64592627       3.18577171       6.72591917
H        2.53689288       4.39571385       8.68591527
H        3.72433223       6.83429814       8.66716587
H        5.67251951       7.64823810       9.78872316
H        5.39961373       9.89412465      13.45654417
H        2.94384511       9.56380230      13.48196874
H        1.28814561       7.71410624      10.98412140
H       -0.95859189       8.42421108       7.17442957
H        0.47782282       8.79481796       8.12738915
H       -0.91096913       7.96138579       8.88342457
H       -0.98677853       6.46176442       5.88900839
H       -0.18516260       2.32223503       3.13368929
C        7.10936129       8.97372079      11.60537264
C        8.30497112       9.13121985      11.59324093
Br      10.23817109       9.38588252      11.57362499
C        1.79195554      -1.79195554       1.79195554
C        3.10590055      -2.05828239       1.40383607
C        3.92041533      -2.86053360       2.20638939
C        3.41431403      -3.38826509       3.39480357
O        4.20835575      -4.18274861       4.17405829
C        2.09528598      -3.12150166       3.78097569
C        1.56261007      -3.69451280       5.03402400
N        0.29681148      -3.66767471       5.31634406
C       -0.12496919      -4.27352775       6.51225509
C       -1.03106455      -3.59235676       7.32321673
C       -1.50592559      -4.17090509       8.50480340
C       -1.09975998      -5.45562753       8.88784552
N       -1.56589276      -6.03556793      10.08366938
C       -2.84412446      -6.23603745      10.17687435
C       -3.43306172      -6.86610144      11.37600403
C       -4.82616155      -6.94996001      11.46105179
C       -5.40803924      -7.55591306      12.57587917
C       -4.61686790      -8.08030258      13.59828657
C       -3.22673984      -7.99554591      13.51076155
C       -2.63822302      -7.38702067      12.40461334
O       -1.27113941      -7.33929745      12.38478007
C       -0.18282473      -6.15049485       8.08279455
C        0.34080258      -7.49842561       8.49198320
C        0.28240430      -5.55772868       6.89518394
C        1.27874341      -2.32136228       2.97443719
H        3.50238030      -1.64717498       0.47839668
H        4.93912896      -3.06232167       1.88743469
H        5.07713812      -4.28573442       3.74989572
H        2.29826766      -4.15678416       5.71723387
H       -1.36810621      -2.60122387       7.03264695
H       -2.19499625      -3.60989801       9.12983448
H       -3.54149138      -5.95259295       9.36603021
H       -5.45419919      -6.54739928      10.67124167
H       -5.06954802      -8.55617638      14.46442672
H       -2.60169884      -8.40224514      14.30137963
H       -1.00955104      -6.84792718      11.57170589
H        0.90490980      -7.97142843       7.68089431
H       -0.48090370      -8.17312989       8.75215810
H        1.01136598      -7.39286832       9.35154519
H        0.97211799      -6.10666822       6.25876513
H        0.25382708      -2.11425233       3.27300751
C       -6.84236884      -7.64143099      12.67066999
C       -8.04361987      -7.71305225      12.75005729
Br      -9.98594120      -7.82885777      12.87841985
C       -0.00445707       0.01189536      -1.78238275
H       -0.66409135       0.67374010      -2.43557963
H        0.65740317      -0.63156657      -2.45157240
C       -0.90989263      -0.90692880      -0.91072765
C        0.90977584       0.90977584      -0.90977584
C       -0.00465871       1.77757030       0.00794375
H       -0.66225468       2.44313916      -0.64384735
H        0.64322798       2.43503045       0.67728295
C       -1.78241447       0.00034974      -0.00472694
H       -2.45427497      -0.65498947       0.64260836
H       -2.43311707       0.67328779      -0.65473579
C       -0.91132561       0.90220522       0.91563759
C       -0.01476271      -0.02253852       1.78660255
H       -0.67934791      -0.69751639       2.42135241
H        0.63392994       0.61504881       2.47327442
C        0.01484550      -1.77751727      -0.01636693
H        0.67870853      -2.42144646      -0.68295456
H       -0.62264859      -2.45592969       0.64226336
C        1.78714474       0.01002794       0.00389507
H        2.44202412       0.67113390       0.66197326
H        2.45385902      -0.65136977      -0.64189061
C        0.91606151      -0.90478549       0.90901405
