177
Properties=species:S:1:pos:R:3 pbc="F F F"
C        0.00000000       0.00000000       0.00000000
C        0.88205151       0.88205151      -0.88205151
C        0.48660498       2.19131439      -1.16038756
C        1.28907213       3.00583070      -1.96272341
C        2.48471623       2.50445497      -2.47849943
O        3.26397481       3.29838897      -3.27308680
C        2.87824812       1.19009859      -2.19970454
C        4.13903017       0.66228875      -2.76011587
N        4.43003866      -0.60126104      -2.72234056
C        5.63313956      -1.01881610      -3.31677813
C        6.44560714      -1.91434378      -2.62353350
C        7.63456412      -2.38488609      -3.19039281
C        8.02382297      -1.98505601      -4.47523402
N        9.22696496      -2.44677955      -5.04344707
C        9.33056325      -3.72569663      -5.23420864
C       10.53822822      -4.31054729      -5.85165075
C       10.63365166      -5.70356530      -5.92505181
C       11.75679835      -6.28178378      -6.51902635
C       12.77730683      -5.48710233      -7.04180468
C       12.67942078      -4.09706716      -6.96750194
C       11.56488799      -3.51213041      -6.37094134
O       11.53511421      -2.14491981      -6.33303164
C        7.21728652      -1.07874338      -5.18220946
C        7.63231261      -0.56171649      -6.53090319
C        6.02227298      -0.61777532      -4.60110720
C        2.07182518       0.37351157      -1.39949406
H       -0.44448221       2.58411522      -0.75860687
H        0.96440436       4.02081959      -2.17394930
H        2.83445866       4.16340382      -3.38519370
H        4.82030850       1.39949584      -3.22276928
H        6.15040750      -2.24646162      -1.63210665
H        8.26043590      -3.06555944      -2.62014770
H        8.52265316      -4.42677421      -4.95154076
H        9.84544477      -6.33433143      -5.52361634
H       13.64995074      -5.93697526      -7.50836752
H       13.46848591      -3.46932088      -7.37304883
H       10.71676644      -1.88564484      -5.84924837
H        6.82064753      -0.00669846      -7.01357139
H        7.90302051      -1.38628110      -7.19793280
H        8.48637433       0.11563634      -6.42405675
H        5.38492414       0.06354522      -5.15936991
H        2.37611551      -0.64778654      -1.18304588
C       11.86226574      -7.71597223      -6.59372655
C       11.95059468      -8.91710506      -6.65628797
Br      12.09341510     -10.85923525      -6.75744449
C       -0.88205151      -0.88205151      -0.88205151
C       -0.51309041      -2.20728625      -1.11793028
C       -1.31586543      -3.02179172      -1.91996908
C       -2.48536859      -2.50428548      -2.47801656
O       -3.26462021      -3.29859788      -3.27223249
C       -2.85229879      -1.17399603      -2.24175644
C       -4.08513024      -0.62959443      -2.84671013
N       -4.34494217       0.64129824      -2.84747425
C       -5.52207699       1.07323117      -3.48225577
C       -6.32849087       2.00576247      -2.83206846
C       -7.49083096       2.49099809      -3.44023796
C       -7.85827266       2.06853145      -4.72425978
N       -9.03497850       2.54526937      -5.33392335
C       -9.10147306       3.82112019      -5.55872240
C      -10.27837206       4.41977529      -6.22073491
C      -10.33670606       5.81242152      -6.33085363
C      -11.42988588       6.40295773      -6.96711277
C      -12.45695842       5.62071959      -7.49577035
C      -12.39611016       4.23101641      -7.38476180
C      -11.31177250       3.63404391      -6.74597033
O      -11.31751952       2.26791052      -6.67361704
C       -7.05772029       1.12502104      -5.38805335
C       -7.45230170       0.58445172      -6.73364933
C       -5.88943656       0.64956446      -4.76573274
C       -2.04546567      -0.35757242      -1.44179273
H        0.39757704      -2.61264370      -0.68317322
H       -1.01185364      -4.04949395      -2.09782566
H       -2.85447785      -4.17649907      -3.35207927
H       -4.77321376      -1.36123909      -3.30812076
H       -6.04952630       2.35546009      -1.84198633
H       -8.11316457       3.20109795      -2.90295754
H       -8.28331192       4.50898464      -5.27309243
H       -9.54294226       6.43350707      -5.92529449
H      -13.30617861       6.08003447      -7.99519887
H      -13.19055394       3.61286603      -7.79452595
H      -10.51816732       2.00084899      -6.16305163
H       -6.64327332      -0.00243853      -7.18180861
H       -7.68554464       1.39831277      -7.42744035
H       -8.32559098      -0.06871657      -6.63175988
H       -5.25594490      -0.06116226      -5.29073210
H       -2.32908199       0.67606463      -1.25835749
C      -11.49718462       7.83696355      -7.07979900
C      -11.55354730       9.03794343      -7.17417372
Br     -11.64468100      10.97982631      -7.32676966
C       -0.88205151       0.88205151       0.88205151
C       -2.26988574       0.74686981       0.82155138
C       -3.08357670       1.54660301       1.62744652
C       -2.50140958       2.47462847       2.49163257
O       -3.29870831       3.26503259       3.27170969
C       -1.10910056       2.60994500       2.54900569
C       -0.50070576       3.60379218       3.45693685
N        0.75390123       3.92442338       3.38059603
C        1.23715407       4.90990268       4.25835298
C        2.44575802       4.68531615       4.91523873
C        2.98324718       5.65251406       5.77080396
C        2.33142989       6.87647166       5.96895922
N        2.86336940       7.84702573       6.83997616
C        4.02724449       8.33169657       6.53462319
C        4.66134640       9.37621853       7.36445954
C        5.96319784       9.77362800       7.04470801
C        6.57940620      10.77093454       7.80251258
C        5.91037937      11.37521653       8.86717202
C        4.61103633      10.97691599       9.18397589
C        3.99114562       9.97816695       8.43667759
O        2.71762692       9.63804204       8.80281092
C        1.11015796       7.11322683       5.31768373
C        0.33638022       8.37873109       5.55914845
C        0.58432262       6.13308388       4.45684358
C       -0.29493130       1.81153079       1.73836873
H       -2.72541046       0.02355330       0.14927612
H       -4.16211633       1.43244482       1.56461210
H       -4.23184268       3.06115998       3.09005352
H       -1.17257111       4.06862832       4.20137418
H        2.97189345       3.74744006       4.76050593
H        3.91591236       5.44367177       6.28726475
H        4.58712012       7.99151297       5.64302685
H        6.49514105       9.31276859       6.21710214
H        6.38829918      12.15495612       9.45468607
H        4.08094140      11.44251443      10.01064083
H        2.43446072       8.89883315       8.21599752
H       -0.49440585       8.48053795       4.85257667
H        0.97746975       9.25719371       5.43494826
H       -0.08142385       8.37304667       6.57159691
H       -0.34805396       6.32734933       3.93243598
H        0.78656210       1.91642638       1.78151057
C        7.92154469      11.18131420       7.48025055
C        9.04558567      11.52500717       7.21035609
Br      10.86306487      12.08072963       6.77395958
C        0.88205151      -0.88205151       0.88205151
C        2.24508184      -0.60223289       0.99099220
C        3.05799526      -1.40125301       1.79837796
C        2.49939727      -2.47383955       2.49443381
O        3.29765502      -3.26239643       3.27539913
C        1.13227217      -2.75389132       2.38188776
C        0.55070981      -3.89907755       3.11164743
N       -0.64612590      -4.33355592       2.86368815
C       -1.10187258      -5.45452502       3.57844914
C       -2.38784163      -5.42734102       4.11529747
C       -2.89702337      -6.53320319       4.80389102
C       -2.13566437      -7.69993683       4.94972853
N       -2.64053638      -8.81028723       5.65388164
C       -3.70632529      -9.37222168       5.17317888
C       -4.29979210     -10.56135747       5.81776631
C       -5.51030030     -11.04927171       5.31616676
C       -6.08412043     -12.18187713       5.89628422
C       -5.46207409     -12.83113055       6.96295272
C       -4.25384933     -12.34225775       7.46144714
C       -3.67760533     -11.20903103       6.89227322
O       -2.49336205     -10.78578257       7.43080552
C       -0.83637422      -7.73850601       4.41862081
C        0.04585463      -8.93890583       4.61673885
C       -0.33963143      -6.62042670       3.72480957
C        0.31950967      -1.95569307       1.56962808
H        2.68208730       0.23379138       0.44994396
H        4.11782984      -1.17302674       1.86831666
H        4.21564086      -2.94679539       3.22061994
H        1.19213726      -4.37437994       3.87605641
H       -2.99732144      -4.53566922       3.99770475
H       -3.89432237      -6.47816551       5.23118102
H       -4.20831566      -8.99245242       4.26328294
H       -6.00459625     -10.55454655       4.48477938
H       -5.90639726     -13.71570931       7.41203096
H       -3.76075628     -12.84174855       8.29122159
H       -2.23711861      -9.96091543       6.95657314
H        0.94956089      -8.87710140       4.00085817
H       -0.47725455      -9.85789935       4.33402741
H        0.35657614      -9.00451993       5.66497135
H        0.65655066      -6.66019359       3.29109501
H       -0.74230265      -2.17285683       1.48082067
C       -7.33275560     -12.68638036       5.38639531
C       -8.37848757     -13.10890180       4.95936336
Br     -10.06934770     -13.79208325       4.26888880
