169
Properties=species:S:1:pos:R:3 pbc="F F F"
C        0.00000000       0.00000000       0.00000000
C        0.88205151       0.88205151      -0.88205151
C        0.48660498       2.19131439      -1.16038756
C        1.28907213       3.00583070      -1.96272341
C        2.48471623       2.50445497      -2.47849943
O        3.26397481       3.29838897      -3.27308680
C        2.87824812       1.19009859      -2.19970454
C        4.13903017       0.66228875      -2.76011587
N        4.43003866      -0.60126104      -2.72234056
C        5.63313956      -1.01881610      -3.31677813
C        6.44560714      -1.91434378      -2.62353350
C        7.63456412      -2.38488609      -3.19039281
C        8.02382297      -1.98505601      -4.47523402
N        9.22696496      -2.44677955      -5.04344707
C        9.33056325      -3.72569663      -5.23420864
C       10.53822822      -4.31054729      -5.85165075
C       10.63365166      -5.70356530      -5.92505181
C       11.75679835      -6.28178378      -6.51902635
Br      11.89528986      -8.16504762      -6.61711680
C       12.77730683      -5.48710233      -7.04180468
C       12.67942078      -4.09706716      -6.96750194
C       11.56488799      -3.51213041      -6.37094134
O       11.53511421      -2.14491981      -6.33303164
C        7.21728652      -1.07874338      -5.18220946
C        7.63231261      -0.56171649      -6.53090319
C        6.02227298      -0.61777532      -4.60110720
C        2.07182518       0.37351157      -1.39949406
H       -0.44448221       2.58411522      -0.75860687
H        0.96440436       4.02081959      -2.17394930
H        2.83445866       4.16340382      -3.38519370
H        4.82030850       1.39949584      -3.22276928
H        6.15040750      -2.24646162      -1.63210665
H        8.26043590      -3.06555944      -2.62014770
H        8.52265316      -4.42677421      -4.95154076
H        9.84544477      -6.33433143      -5.52361634
H       13.64995074      -5.93697526      -7.50836752
H       13.46848591      -3.46932088      -7.37304883
H       10.71676644      -1.88564484      -5.84924837
H        6.82064753      -0.00669846      -7.01357139
H        7.90302051      -1.38628110      -7.19793280
H        8.48637433       0.11563634      -6.42405675
H        5.38492414       0.06354522      -5.15936991
H        2.37611551      -0.64778654      -1.18304588
C       -0.88205151      -0.88205151      -0.88205151
C       -0.47308489      -2.18209748      -1.18312457
C       -1.27539086      -2.99661339      -1.98562199
C       -2.48437172      -2.50453372      -2.47876518
O       -3.26364167      -3.29826231      -3.27354661
C       -2.89148529      -1.19937556      -2.17719041
C       -4.16654074      -0.68114928      -2.71374477
N       -4.47370846       0.57777473      -2.65518445
C       -5.69009050       0.98698934      -3.22800043
C       -6.50496723       1.86229272      -2.51212235
C       -7.70753914       2.32430995      -3.05684165
C       -8.10866600       1.93633072      -4.34166570
N       -9.32532188       2.38935847      -4.88766907
C       -9.44838016       3.66918346      -5.05987857
C      -10.67184730       4.24590717      -5.65339155
C      -10.78666824       5.63836972      -5.70683966
C      -11.92522970       6.20928515      -6.27809637
Br     -12.08992827       8.09165576      -6.34908652
C      -12.94205247       5.40797843      -6.79793515
C      -12.82479673       4.01851927      -6.74357810
C      -11.69472408       3.44073706      -6.16971190
O      -11.64635847       2.07366668      -6.15053425
C       -7.29976075       1.05034645      -5.07133830
C       -7.72595585       0.54569052      -6.42123398
C       -6.09106906       0.59779454      -4.51233032
C       -2.08528012      -0.38270814      -1.37684255
H        0.46842107      -2.56766045      -0.79900051
H       -0.94018401      -4.00427447      -2.21471477
H       -2.82426029      -4.15588156      -3.40291434
H       -4.84414781      -1.42123896      -3.17718685
H       -6.20092111       2.18519260      -1.52032403
H       -8.33465972       2.98892631      -2.46929075
H       -8.64609901       4.37722920      -4.77854989
H      -10.00156413       6.27428096      -5.30744651
H      -13.82674920       5.85224407      -7.24683788
H      -13.61085401       3.38567024      -7.14703009
H      -10.81823905       1.81900935      -5.68114027
H       -6.91356319       0.00803960      -6.92199687
H       -8.01646854       1.37530431      -7.07350799
H       -8.56947176      -0.14440693      -6.31218874
H       -5.45230424      -0.06747355      -5.08806148
H       -2.40012660       0.63146517      -1.14271342
C       -0.88205151       0.88205151       0.88205151
C       -2.09128772       0.38075202       1.36626720
C       -2.90192772       1.17911708       2.17658143
C       -2.49421800       2.47388299       2.49956963
O       -3.29346173       3.25876057       3.28322828
C       -1.28183134       2.97532406       2.01089585
C       -0.86322260       4.35166786       2.34654433
N        0.12411488       4.93497728       1.74025577
C        0.42591767       6.26057271       2.09644654
C        1.75916526       6.60982438       2.30413774
C        2.11043370       7.92500262       2.62550191
C        1.13392611       8.92452888       2.72339821
N        1.48299717      10.24688506       3.05974459
C        2.27045647      10.87056720       2.23896454
C        2.67353667      12.27059028       2.48227806
C        3.61247889      12.84653818       1.62107889
C        3.99806927      14.17353303       1.81857716
Br       5.27135267      14.95753470       0.66117701
C        3.45467508      14.92811747       2.85856679
C        2.51754109      14.35094996       3.71644669
C        2.13188938      13.02552432       3.53006398
O        1.20950894      12.52501023       4.40772475
C       -0.21363047       8.58493764       2.52218449
C       -1.30323162       9.60588890       2.69237880
C       -0.55112975       7.25926360       2.19521149
C       -0.47246582       2.17654324       1.19582176
H       -2.41032063      -0.62839986       1.11631911
H       -3.84245313       0.77564853       2.54107159
H       -4.10192239       2.76939611       3.51173769
H       -1.44124419       4.86448858       3.13684084
H        2.53056266       5.84975835       2.21685685
H        3.15464080       8.16616580       2.80349917
H        2.66498762      10.38705904       1.32534828
H        4.04229996      12.27098086       0.80604878
H        3.75140736      15.96282205       3.00992832
H        2.08741279      14.93088640       4.52874025
H        1.07263478      11.57713213       4.17587262
H       -2.26646863       9.22622044       2.33483140
H       -1.07996332      10.51291698       2.12179192
H       -1.41387538       9.86023227       3.75195977
H       -1.59184189       7.00223994       2.01375744
H        0.46898049       2.56533654       0.81501880
C        0.88205151      -0.88205151       0.88205151
C        2.19482243      -0.49206339       1.15142112
C        3.00685035      -1.29065867       1.96011721
C        2.49729632      -2.47357758       2.49679672
O        3.29615387      -3.26049705       3.27879967
C        1.18081825      -2.86380818       2.22342483
C        0.65269987      -4.12411014       2.78462478
N       -0.46735109      -4.63839870       2.38007057
C       -0.87186020      -5.86179872       2.94116307
C       -2.19747713      -6.00505975       3.34721424
C       -2.65406823      -7.21572442       3.87841464
C       -1.79643158      -8.31731718       3.99311538
N       -2.24971526      -9.53359135       4.53975639
C       -3.20608938     -10.13905726       3.90610739
C       -3.73389326     -11.43548540       4.37773954
C       -4.83915807     -11.97864456       3.71565169
C       -5.34729115     -13.21084212       4.13048996
Br      -6.84508497     -13.94911396       3.24333004
C       -4.76284743     -13.90422673       5.19062988
C       -3.65965930     -13.36001489       5.84949996
C       -3.15017886     -12.12807424       5.44580354
O       -2.06783351     -11.65505828       6.13600127
C       -0.45699939      -8.18470237       3.59304961
C        0.51902259      -9.31391168       3.76856504
C       -0.01347992      -6.96253932       3.05654545
C        0.36946387      -2.06552708       1.40983987
H        2.59345089       0.42995617       0.73474516
H        4.02788145      -0.97539241       2.15589939
H        4.17922009      -2.85906832       3.34476778
H        1.26639369      -4.61320536       3.56297457
H       -2.87972803      -5.16506310       3.25071746
H       -3.68649745      -7.29427414       4.20724747
H       -3.65889149      -9.71745668       2.98885451
H       -5.30292946     -11.45027672       2.88738242
H       -5.15554049     -14.86584088       5.51104262
H       -3.19645788     -13.89305292       6.67561882
H       -1.85326110     -10.76715461       5.76647646
H        1.46415285      -9.10925006       3.25411755
H        0.11805688     -10.24372734       3.35288800
H        0.73840144      -9.45537900       4.83228698
H        1.01690092      -6.86831832       2.72262002
H       -0.65292009      -2.36812786       1.19616708
