170
Properties=species:S:1:pos:R:3 pbc="F F F"
C        1.79115895       1.79115895      -1.79115895
C        3.17769898       1.68051849      -1.71508155
C        3.98734483       2.49864300      -2.51078571
C        3.41227730       3.43214929      -3.37483986
C        2.01875926       3.51291765      -3.46123056
C        1.20539164       2.70114425      -2.66594397
O        4.08877117       4.29558492      -4.19332796
C        5.44937543       4.59629768      -3.87225353
H        5.68331350       4.42409419      -2.81422555
C        6.33390709       3.72077966      -4.76132990
C        5.78208150       6.08565139      -4.12345781
O        6.73714275       6.45646053      -4.81189449
N        5.01652790       7.03851333      -3.48886689
N        3.92943236       6.72907180      -2.74046970
C        3.14858574       7.72161961      -2.45854878
C        1.87836210       7.51559369      -1.73491019
C        1.57685949       6.27501101      -1.16330017
C        0.33758579       6.06955020      -0.55686081
C       -0.59665914       7.10451635      -0.51679047
C       -0.28223508       8.34453387      -1.07537423
C        0.95384773       8.56086663      -1.68476943
H        3.64036186       0.96118833      -1.04432856
H        5.06201576       2.37165529      -2.43803098
H        1.56442535       4.23422641      -4.13696468
H        0.12512542       2.79309732      -2.73613162
H        6.15177683       3.94048977      -5.82089733
H        6.11222614       2.65793590      -4.62304005
H        7.39685376       3.88325328      -4.55702844
H        5.24312430       8.00442926      -3.69890526
H        3.37667266       8.75368465      -2.78560196
H        2.29800819       5.46135798      -1.19795281
H        0.09952229       5.09951010      -0.12622637
H       -1.56474565       6.93415447      -0.05179735
H        1.18199689       9.52454265      -2.13211607
C       -1.25187183       9.40843527      -1.03640806
C       -2.06394262      10.29945270      -1.00377390
Br      -3.37699239      11.74015252      -0.95100721
C       -1.79115895      -1.79115895      -1.79115895
C       -3.16653454      -1.57404775      -1.83271673
C       -3.97786448      -2.39102604      -2.62788302
C       -3.41657167      -3.42908807      -3.37360671
C       -2.03115512      -3.61782025      -3.34393209
C       -1.21659431      -2.80746071      -2.54842485
O       -4.09742289      -4.30262000      -4.17764117
C       -5.49725565      -4.47709631      -3.94357467
H       -5.79345308      -4.20555417      -2.92262598
C       -6.24293217      -3.61209734      -4.96098714
C       -5.92693903      -5.95335776      -4.11089391
O       -6.85546228      -6.30655545      -4.84348004
N       -5.28708108      -6.90660606      -3.35022098
N       -4.23648870      -6.61933194      -2.54315322
C       -3.55882887      -7.64090902      -2.12901625
C       -2.33249925      -7.47175779      -1.32460894
C       -1.97678612      -6.21533808      -0.82304647
C       -0.77272477      -6.05371559      -0.13755645
C        0.07174768      -7.14768833       0.05129297
C       -0.29771785      -8.40157853      -0.43837664
C       -1.49924684      -8.57447557      -1.12576139
H       -3.61883060      -0.77233678      -1.25471136
H       -5.04164257      -2.18066843      -2.64939104
H       -1.58693240      -4.42128298      -3.92740106
H       -0.14468308      -2.98319197      -2.52647932
H       -6.00187016      -3.92721458      -5.98407919
H       -5.94896619      -2.56067313      -4.88356277
H       -7.32742942      -3.68003165      -4.82967441
H       -5.57307278      -7.86695047      -3.50643557
H       -3.84297470      -8.67612150      -2.39686306
H       -2.62720604      -5.35651569      -0.97359724
H       -0.49109588      -5.07274525       0.23858237
H        1.01374088      -7.01231659       0.57736954
H       -1.76929890      -9.55115696      -1.51819976
C        0.57974528      -9.52698754      -0.24572924
C        1.31462066     -10.46951759      -0.08438705
Br       2.50285198     -11.99350895       0.17648963
C       -1.79115895       1.79115895       1.79115895
C       -1.96736060       3.13530803       1.47063038
C       -2.76219142       3.94839634       2.28618578
C       -3.37291192       3.42103169       3.42532283
C       -3.20989036       2.06354213       3.71947497
C       -2.41392227       1.24783873       2.91071887
O       -4.16091511       4.10867334       4.30809560
C       -4.03458358       5.53238832       4.35095474
H       -3.06736033       5.88381835       3.97045456
C       -5.17715580       6.11867660       3.52018424
C       -4.12116049       6.07240370       5.79762651
O       -4.90044560       6.96709835       6.13795383
N       -3.23568689       5.57852843       6.72969279
N       -2.36677264       4.57411454       6.45808668
C       -1.81685256       4.02122147       7.49068010
C       -0.92621364       2.85217333       7.35047900
C       -0.49666701       2.43081180       6.08769186
C        0.27454961       1.27514830       5.96339812
C        0.62071101       0.54501323       7.10034545
C        0.20159895       0.98075477       8.35851720
C       -0.57039357       2.13471943       8.49437079
H       -1.49524472       3.56143636       0.58919767
H       -2.89125753       4.98522637       1.99521814
H       -3.68798608       1.64515146       4.60247891
H       -2.28645539       0.19999948       3.16789950
H       -6.14779435       5.82557042       3.93979915
H       -5.15798722       5.74275617       2.49245870
H       -5.13427074       7.21197220       3.49089254
H       -3.33960884       5.93251457       7.67433541
H       -2.02558587       4.37098443       8.51938897
H       -0.76962636       2.99137553       5.19631708
H        0.59490009       0.94107044       4.97908840
H        1.21322102      -0.36068614       6.99511332
H       -0.90627936       2.45564654       9.47672972
C        0.55683715       0.22084550       9.52896315
C        0.85434913      -0.41557852      10.50921163
Br       1.33540086      -1.44462232      12.09419052
C        1.79115895      -1.79115895       1.79115895
C        1.33934723      -2.18544300       3.04850878
C        2.15238015      -2.98028054       3.86411285
C        3.41871103      -3.37319372       3.42736170
C        3.84796646      -2.99320883       2.15173217
C        3.04177833      -2.19608530       1.33461624
O        4.31190521      -4.13623679       4.12954205
C        4.16685729      -4.20039916       5.55067019
H        3.61919239      -3.34235245       5.96008840
C        3.43509308      -5.50302167       5.87790189
C        5.53692738      -4.18618304       6.26808028
O        5.87071735      -5.03357846       7.10120196
N        6.39222664      -3.13688003       6.01480144
N        6.12694340      -2.17821360       5.09381686
C        7.13377086      -1.43889763       4.75608564
C        7.01443205      -0.42079316       3.69364076
C        5.76442089      -0.09186894       3.15888084
C        5.67536162       0.80886477       2.09749996
C        6.83368480       1.38434048       1.57530335
C        8.07602103       1.06317271       2.12482470
C        8.17675770       0.16328737       3.18601346
H        0.35739784      -1.88430912       3.40417178
H        1.75993584      -3.28290255       4.82886365
H        4.83134992      -3.30108799       1.80317855
H        3.40252548      -1.89757465       0.35425423
H        4.01472599      -6.36768406       5.53075387
H        2.46661992      -5.55580640       5.37077577
H        3.26988857      -5.61295550       6.95429142
H        7.29312838      -3.17439035       6.47894009
H        8.13210272      -1.56887562       5.21498093
H        4.85791747      -0.54297334       3.55642816
H        4.70365063       1.05178785       1.67339599
H        6.75781230       2.07761585       0.74100971
H        9.15023236      -0.09335998       3.59506328
C        9.26961186       1.65562320       1.57898284
C       10.26924418       2.15180049       1.12184029
Br      11.88556511       2.95407720       0.38267944
C       -0.00445707       0.01189536      -1.78238275
H       -0.66409135       0.67374010      -2.43557963
H        0.65740317      -0.63156657      -2.45157240
C       -0.90989263      -0.90692880      -0.91072765
C        0.90977584       0.90977584      -0.90977584
C       -0.00465871       1.77757030       0.00794375
H       -0.66225468       2.44313916      -0.64384735
H        0.64322798       2.43503045       0.67728295
C       -1.78241447       0.00034974      -0.00472694
H       -2.45427497      -0.65498947       0.64260836
H       -2.43311707       0.67328779      -0.65473579
C       -0.91132561       0.90220522       0.91563759
C       -0.01476271      -0.02253852       1.78660255
H       -0.67934791      -0.69751639       2.42135241
H        0.63392994       0.61504881       2.47327442
C        0.01484550      -1.77751727      -0.01636693
H        0.67870853      -2.42144646      -0.68295456
H       -0.62264859      -2.45592969       0.64226336
C        1.78714474       0.01002794       0.00389507
H        2.44202412       0.67113390       0.66197326
H        2.45385902      -0.65136977      -0.64189061
C        0.91606151      -0.90478549       0.90901405
