149
Properties=species:S:1:pos:R:3 pbc="F F F"
C        0.00000000       0.00000000       0.00000000
C        0.88125492       0.88125492      -0.88125492
C        2.26779495       0.77061446      -0.80517753
C        3.07744081       1.58873898      -1.60088168
C        2.50237328       2.52224526      -2.46493583
C        1.10885523       2.60301363      -2.55132653
C        0.29548761       1.79124023      -1.75603995
O        3.17886715       3.38568090      -3.28342394
C        4.53947140       3.68639366      -2.96234951
H        4.77340947       3.51419017      -1.90432152
C        5.42400306       2.81087564      -3.85142587
C        4.87217748       5.17574736      -3.21355378
O        5.82723873       5.54655651      -3.90199047
N        4.10662388       6.12860930      -2.57896287
N        3.01952833       5.81916777      -1.83056568
C        2.23868171       6.81171559      -1.54864476
C        0.96845808       6.60568966      -0.82500617
C        0.66695547       5.36510698      -0.25339614
C       -0.57231823       5.15964618       0.35304321
C       -1.50656317       6.19461233       0.39311356
C       -1.19213910       7.43462984      -0.16547021
C        0.04394371       7.65096261      -0.77486540
H        2.73045783       0.05128430      -0.13442453
H        4.15211174       1.46175127      -1.52812696
H        0.65452133       3.32432238      -3.22706066
H       -0.78477860       1.88319330      -1.82622759
H        5.24187280       3.03058574      -4.91099331
H        5.20232212       1.74803187      -3.71313603
H        6.48694973       2.97334926      -3.64712442
H        4.33322027       7.09452524      -2.78900124
H        2.46676863       7.84378062      -1.87569794
H        1.38810417       4.55145395      -0.28804878
H       -0.81038173       4.18960608       0.78367766
H       -2.47464968       6.02425044       0.85810668
H        0.27209287       8.61463863      -1.22221205
C       -2.16177586       8.49853125      -0.12650404
C       -2.97384664       9.38954868      -0.09386987
Br      -4.28689641      10.83024850      -0.04110318
C       -0.88125492      -0.88125492      -0.88125492
C       -1.47788712      -2.02029641      -0.34540341
C       -2.27330453      -2.83788825      -1.15586869
C       -2.46501851      -2.52239885      -2.50213702
C       -1.88270024      -1.36091717      -3.01957799
C       -1.08407815      -0.54294746      -2.21574218
O       -3.20595102      -3.24176069      -3.40026027
C       -3.46354368      -4.61745412      -3.10721677
H       -2.72990219      -5.04785827      -2.41416070
C       -4.87017277      -4.70338559      -2.51274622
C       -3.38707466      -5.49809435      -4.37630962
O       -4.28981634      -6.26701447      -4.71895489
N       -2.22571128      -5.47237944      -5.11610532
N       -1.19463445      -4.63780842      -4.83681892
C       -0.31142519      -4.51335242      -5.77426445
C        0.81222267      -3.56423563      -5.64714095
C        1.06449119      -2.91688859      -4.43306120
C        2.07566409      -1.95956070      -4.35038812
C        2.83733559      -1.65401984      -5.47825135
C        2.59000896      -2.31581990      -6.68215001
C        1.58099557      -3.27451705      -6.77625025
H       -1.33484967      -2.28129505       0.69997805
H       -2.73627691      -3.70611226      -0.69960080
H       -2.03311946      -1.10635675      -4.06642816
H       -0.62672756       0.34509889      -2.64301362
H       -5.61458840      -4.33764318      -3.23122028
H       -4.96635749      -4.07612151      -1.62101102
H       -5.13190306      -5.73159900      -2.24392134
H       -2.22067054      -6.03874631      -5.95732990
H       -0.38604759      -5.07648079      -6.72371882
H        0.46907529      -3.14495657      -3.55172562
H        2.26023222      -1.44663408      -3.40914482
H        3.61697702      -0.89914078      -5.40933033
H        1.38498129      -3.77129692      -7.72262791
C        3.37530341      -1.99327911      -7.84528373
C        4.03298751      -1.72315119      -8.81940823
Br       5.09640707      -1.28637719     -10.39448515
C       -0.88125492       0.88125492       0.88125492
C       -0.29444636       1.78332667       1.76581392
C       -1.10057942       2.58077204       2.58571001
C       -2.49099337       2.47057662       2.52798438
C       -3.06685737       1.58078432       1.61555370
C       -2.26651129       0.77904322       0.79721328
O       -3.38703135       3.18024114       3.28069950
C       -2.92354916       3.76332961       4.50133580
H       -2.03054605       3.26390366       4.89747145
C       -2.62760914       5.23754200       4.22115344
C       -3.98013309       3.65572221       5.62562332
O       -4.36612779       4.62623372       6.28342419
N       -4.45661144       2.40548108       5.95210352
N       -4.11626069       1.28693754       5.26606355
C       -4.85759748       0.25050098       5.49094360
C       -4.66418376      -1.00689060       4.74186074
C       -3.55272291      -1.17702063       3.90975632
C       -3.42682937      -2.33534011       3.14279547
C       -4.40765299      -3.32467135       3.21195397
C       -5.50581818      -3.15457227       4.05671504
C       -5.64203913      -1.99999771       4.82773030
H        0.78673810       1.87782769       1.82507707
H       -0.60892074       3.28441535       3.24865387
H       -4.14988818       1.49447773       1.56153846
H       -2.73478068       0.08165297       0.10820865
H       -3.53630603       5.75640840       3.89073743
H       -1.89543413       5.35229378       3.41576211
H       -2.24755696       5.74850600       5.11136045
H       -5.16939075       2.37452838       6.67282762
H       -5.69169324       0.27716779       6.21738617
H       -2.78815698      -0.40592919       3.84537911
H       -2.56930918      -2.45892235       2.48515986
H       -4.30845400      -4.22035451       2.60339460
H       -6.50962943      -1.86960916       5.46892327
C       -6.51862399      -4.17619528       4.12083072
C       -7.36684885      -5.03180455       4.17452761
Br      -8.73835672      -6.41525237       4.26135092
C        0.88125492      -0.88125492       0.88125492
C        0.79209693      -2.26798427       0.78350574
C        1.58787687      -3.07743321       1.60175138
C        2.46511383      -2.50186979       2.52257075
C        2.56438205      -1.10851478       2.59029856
C        1.76910812      -0.29529257       1.77836710
O        3.28523834      -3.17798198       3.38475167
C        2.95495357      -4.53302544       3.70023555
H        1.89344612      -4.75912634       3.53934870
C        3.82852000      -5.43297125       2.82481332
C        3.21635653      -4.85490996       5.19021214
O        3.89966529      -5.81272517       5.56339524
N        2.59689824      -4.07549997       6.14179783
N        1.85532768      -2.98459620       5.82933790
C        1.58899554      -2.19265545       6.81739106
C        0.87469261      -0.91795253       6.60650877
C        0.29482819      -0.62227263       5.36835778
C       -0.30254991       0.62045492       5.15728956
C       -0.32533636       1.56402151       6.18429347
C        0.24138496       1.25553100       7.42210699
C        0.84184234       0.01606302       7.64399240
H        0.11101544      -2.73098423       0.07416700
H        1.50462144      -4.15248954       1.48487898
H        3.25038897      -0.65386978       3.30164563
H        1.84953682       0.78507521       1.86018067
H        4.89153287      -5.25827277       3.03364621
H        3.68281139      -5.21937275       1.76130588
H        3.61638111      -6.49261658       2.99842573
H        2.81345279      -4.29549247       7.10780149
H        1.92312578      -2.41459169       7.84852973
H        0.31600897      -1.35077847       4.56081947
H       -0.73961972       0.85382151       4.18898792
H       -0.78333864       2.53464291       6.00947563
H        1.29565359      -0.20759286       8.60569709
C        0.22026673       2.23472971       8.47772241
C        0.20258021       3.05480863       9.36180032
Br       0.17398261       4.38080687      10.79127954
