125
Properties=species:S:1:pos:R:3 pbc="F F F"
C        0.00000000       0.00000000       0.00000000
O        5.89190005       6.86499802      -2.56685013
C        5.20416445       5.90446403      -2.90843767
N        4.38575762       5.29039982      -1.98426435
N        3.66077772       4.17948053      -2.28494778
C        2.97799975       3.67560528      -1.30483159
C        2.19633182       2.49017595      -1.50363770
C        1.98554657       1.69411634      -2.61260785
C        1.12855321       0.64520060      -2.19991002
C        0.86717777       0.86717777      -0.86717777
O        1.50900734       1.98654676      -0.43661874
C        5.19016246       5.30719483      -4.32391561
O        5.90856903       6.03216842      -5.31313097
C        5.42043151       7.25817873      -5.67541392
C        4.10718409       7.70137957      -5.49559614
C        3.74075732       8.98803985      -5.90207567
C        4.68021766       9.83230180      -6.49252243
C        5.98365503       9.38086770      -6.68535508
C        6.35324970       8.09801064      -6.28685970
H        4.40418889       5.67358749      -1.04398190
H        2.97437063       4.12317061      -0.29478230
H        2.40905403       1.85518515      -3.59513847
H        0.75319899      -0.17072619      -2.80149272
H        4.16587330       5.10917453      -4.66079360
H        5.68284697       4.33007676      -4.24950756
H        3.34429478       7.07385753      -5.04850033
H        2.72028464       9.33268404      -5.75400798
H        4.38855257      10.83370708      -6.79645350
H        7.37167329       7.74717719      -6.42888725
C        6.95783590      10.24900143      -7.29438337
C        7.77371239      10.97606342      -7.80444456
Br       9.09291565      12.15166117      -8.62917037
O       -2.91891593      -7.42130941      -4.98352286
C       -3.14266428      -6.27457360      -4.59982827
N       -2.17572474      -5.59293302      -3.89176403
N       -2.39450343      -4.35259321      -3.37810940
C       -1.41727239      -3.85327689      -2.68788734
C       -1.54862147      -2.56125637      -2.08026762
C       -2.57980037      -1.64227611      -2.07019428
C       -2.13932365      -0.54946598      -1.28487421
C       -0.86717777      -0.86717777      -0.86717777
O       -0.49921762      -2.08546142      -1.34749380
C       -4.45811402      -5.51924637      -4.84391251
O       -5.39194474      -6.15670479      -5.70521889
C       -5.05321671      -6.27502335      -7.02578411
C       -4.10347868      -5.50164654      -7.69903458
C       -3.84321940      -5.73476971      -9.05288374
C       -4.53203996      -6.73447550      -9.73852643
C       -5.48980630      -7.49173965      -9.06833185
C       -5.75690336      -7.26060826      -7.72060841
H       -1.31075300      -6.09512175      -3.71588352
H       -0.46502781      -4.39218144      -2.53511430
H       -3.53390162      -1.75842269      -2.56705334
H       -2.68560299       0.35384757      -1.05221009
H       -4.26972036      -4.49122615      -5.17489492
H       -4.95286121      -5.44147024      -3.86809983
H       -3.55205037      -4.70926508      -7.20533720
H       -3.09844160      -5.13653157      -9.57200349
H       -4.31620696      -6.91458357     -10.78792262
H       -6.49771570      -7.85593542      -7.19408661
C       -6.20376379      -8.52567564      -9.77178127
C       -6.80170319      -9.39159703     -10.36092015
Br      -7.76852062     -10.79171868     -11.31350790
O       -6.42956011       2.50559082       6.38859726
C       -5.60341233       2.86294862       5.55070519
N       -4.97299366       1.91735651       4.77007162
N       -3.99763046       2.24656784       3.88100775
C       -3.45348999       1.25065572       3.25429091
C       -2.39814719       1.48064348       2.31135479
C       -1.77779252       2.63627869       1.87819954
C       -0.78795405       2.23871683       0.94699296
C       -0.86717777       0.86717777       0.86717777
O       -1.84374649       0.39847961       1.68994675
C       -5.19572460       4.32328188       5.30226642
O       -5.95492325       5.30784952       5.99109566
C       -7.26395707       5.46536839       5.62469871
C       -7.82543667       5.07195008       4.40677306
C       -9.18617868       5.28164140       4.16305276
C       -9.98758438       5.88781768       5.12963984
C       -9.42074137       6.29374421       6.33539222
C       -8.06440377       6.09189616       6.58182011
H       -5.22941570       0.94995813       4.94238443
H       -3.76699570       0.20447308       3.42085476
H       -2.01349636       3.64020707       2.20567422
H       -0.10219706       2.87566584       0.40610262
H       -5.15827565       4.54772238       4.22984340
H       -4.16796128       4.42210889       5.67236112
H       -7.23598085       4.60509380       3.62557799
H       -9.62167227       4.96768547       3.21761892
H      -11.04579910       6.03794766       4.93496639
H       -7.62227491       6.40033448       7.52512834
C      -10.24413018       6.91995328       7.33713723
C      -10.93371831       7.44440337       8.17609868
Br     -12.04872400       8.29239482       9.53262838
O        4.24036222      -3.41683894       7.66654704
C        4.08228549      -3.48582957       6.44895109
N        3.32351528      -2.53096336       5.80594315
N        3.05248949      -2.59801248       4.47470407
C        2.28146769      -1.66331230       4.01365663
C        1.91122339      -1.65037304       2.62854903
C        2.22719094      -2.48824193       1.57683788
C        1.55083479      -1.98257645       0.44025259
C        0.86717777      -0.86717777       0.86717777
O        1.08225721      -0.65625212       2.19366351
C        4.67160837      -4.59079728       5.55886724
O        5.58004449      -5.48221107       6.19161286
C        6.78424507      -4.97350674       6.59627236
C        7.38485198      -3.80869501       6.11061282
C        8.61808487      -3.39188561       6.62090237
C        9.25652726      -4.13725579       7.61125884
C        8.66278880      -5.30649854       8.08059047
C        7.43643887      -5.72938008       7.57230108
H        2.92021758      -1.80773007       6.39381061
H        1.87930103      -0.85837636       4.65464615
H        2.86442251      -3.36077622       1.63417892
H        1.56066349      -2.38591895      -0.56261693
H        5.11564793      -4.17197779       4.64821571
H        3.82439807      -5.20598627       5.23204695
H        6.92617723      -3.20503060       5.33544482
H        9.07923437      -2.48127875       6.24646354
H       10.20997815      -3.80036917       8.00836583
H        6.96782394      -6.63673440       7.94317940
C        9.31786163      -6.07976059       9.10359848
C        9.86648512      -6.72736756       9.96036768
Br      10.75356291      -7.77449325      11.34569103
