158
Properties=species:S:1:pos:R:3 pbc="F F F"
O        4.55562948       5.55018196      -0.14601211
C        3.34171597       5.65115972       0.04037603
C        2.34840872       5.94777502      -1.09076477
O        2.68163056       5.34873823      -2.33880467
C        2.59454566       3.98442009      -2.40912825
C        3.37627797       3.39803390      -3.40832851
C        3.37975492       2.01404302      -3.58964457
C        2.58579540       1.20668293      -2.77806037
C        1.79299302       1.79299302      -1.79299302
C        1.79035308       3.17699643      -1.60367035
N        2.82444940       5.51018658       1.30806094
N        1.49249475       5.59537117       1.57899223
C        1.14286897       5.42068621       2.81465902
C        2.02609429       5.13534462       4.03368690
O        3.23235441       5.02857947       4.00631580
N        1.15966682       5.03868671       5.09896319
C       -0.16214728       5.22824158       4.68650190
C       -1.31519411       5.20600350       5.44680716
Br      -1.27086398       4.89456358       7.30653328
C       -2.53737485       5.42275420       4.79876647
C       -2.58598327       5.65709854       3.40857606
C       -1.41593416       5.67922685       2.64622238
C       -0.22666067       5.46242888       3.31424313
H        2.39177312       7.03284105      -1.24519520
H        1.30861498       5.73258344      -0.82966618
H        4.00172840       4.02655069      -4.03834784
H        4.00463702       1.57001138      -4.35993397
H        2.59150135       0.12968566      -2.92097859
H        1.15064468       3.59722159      -0.83606168
H        3.49459598       5.31002247       2.05543649
H        1.45382415       4.85196285       6.04788387
H       -3.46828244       5.41200653       5.36322323
H       -3.54807316       5.82183761       2.92566484
H       -1.43902579       5.85761194       1.57597627
O       -1.05142339      -6.61891583      -2.58148432
C       -0.14320414      -5.86785499      -2.94144053
C       -0.25381728      -4.95985477      -4.17327647
O       -1.55379392      -4.42212333      -4.39325621
C       -2.00193905      -3.50378007      -3.48237489
C       -3.39217409      -3.37896548      -3.41150080
C       -3.98200505      -2.47717943      -2.52425803
C       -3.17977882      -1.68086535      -1.70989454
C       -1.79299302      -1.79299302      -1.79299302
C       -1.19790243      -2.69803407      -2.67508336
N        1.03878590      -5.82803479      -2.23732615
N        2.07469412      -5.01025210      -2.57331571
C        3.12020934      -5.06001921      -1.80908628
C        3.36500373      -5.92464819      -0.56810756
O        2.57406291      -6.71918928      -0.10949170
N        4.62889123      -5.59355259      -0.13472898
C        5.20092188      -4.62102797      -0.95948631
C        6.44462930      -4.02818924      -0.86044229
Br       7.65404733      -4.48436321       0.51314955
C        6.79519532      -3.06619957      -1.81560862
C        5.90107205      -2.71499372      -2.84861755
C        4.64547970      -3.31933353      -2.94321649
C        4.32936466      -4.26419467      -1.98669507
H       -0.03309664      -5.60209812      -5.03461461
H        0.49754246      -4.16596629      -4.20244076
H       -4.01990213      -4.00477766      -4.04194713
H       -5.06466661      -2.40186721      -2.46804855
H       -3.64191699      -0.98067053      -1.01957808
H       -0.11598887      -2.74725846      -2.72068061
H        1.10204467      -6.43539185      -1.41583479
H        5.07113644      -6.00490086       0.67586129
H        7.76612054      -2.57566264      -1.77095876
H        6.19469439      -1.96312423      -3.57966978
H        3.94772154      -3.05803944      -3.73229198
O       -6.73402145       1.90904864       1.60875346
C       -6.14805004       2.23087247       0.57357715
C       -5.40410601       3.56383024       0.41901226
O       -4.75241963       4.01475503       1.60199881
C       -3.67589026       3.28429216       2.02791159
C       -3.38172535       3.41273723       3.38817780
C       -2.30811346       2.72233370       3.95299535
C       -1.51010343       1.90747129       3.15296398
C       -1.79299302       1.79299302       1.79299302
C       -2.86974095       2.47725063       1.22402827
N       -6.15350866       1.38624440      -0.51317801
N       -5.51356564       1.67537843      -1.68007039
C       -5.58337190       0.77917030      -2.61364605
C       -6.29904460      -0.57546284      -2.59582975
O       -6.92844286      -1.01496297      -1.65886182
N       -6.06308968      -1.13047919      -3.83322015
C       -5.28136440      -0.28090818      -4.62086383
C       -4.82957870      -0.47366223      -5.91191424
Br      -5.23802343      -2.03869971      -6.88215740
C       -4.04965605       0.53231092      -6.49535410
C       -3.73626823       1.70820758      -5.78193659
C       -4.19740356       1.89681655      -4.47714980
C       -4.96429937       0.88695315      -3.92972744
H       -6.17581549       4.30773172       0.18626217
H       -4.71400219       3.58574597      -0.42888357
H       -4.00792661       4.04336423       4.01533609
H       -2.10044137       2.81881255       5.01532845
H       -0.67582227       1.37056329       3.59578003
H       -3.05024389       2.37346306       0.16022100
H       -6.65020684       0.49849197      -0.39951684
H       -6.41242889      -2.03473957      -4.11978619
H       -3.67398480       0.41722321      -7.51070714
H       -3.12693881       2.47661820      -6.25545739
H       -3.96316742       2.79617721      -3.91673475
O        0.10251094      -5.25468075       4.89463186
C       -0.26852771      -4.10133691       5.11969046
C        0.66077011      -3.02684313       5.69933527
O        2.00925973      -3.11015619       5.24975754
C        2.23752230      -2.81870955       3.93186216
C        3.40499430      -3.37538480       3.40226128
C        3.75775373      -3.15600000       2.06968878
C        2.94818399      -2.36232403       1.26003069
C        1.79299302      -1.79299302       1.79299302
C        1.43249478      -2.01420949       3.12431558
N       -1.56969094      -3.73294724       4.86331875
N       -2.03877112      -2.47211646       5.07552835
C       -3.28004302      -2.25935632       4.76958286
C       -4.31292319      -3.23850663       4.20216858
O       -4.09833029      -4.40352972       3.94941864
N       -5.47145915      -2.50834054       4.06250895
C       -5.28149641      -1.18647411       4.47461470
C       -6.19149950      -0.14734628       4.48815545
Br      -7.97111779      -0.38007471       3.90820941
C       -5.75935487       1.10247406       4.94844181
C       -4.43147560       1.29140610       5.38542092
C       -3.51699172       0.23586507       5.36992709
C       -3.97349453      -0.98416762       4.91085199
H        0.68194734      -3.20672694       6.78113510
H        0.28138235      -2.00811922       5.58136302
H        4.03454274      -4.00070286       4.03138134
H        4.65996843      -3.60813026       1.66648368
H        3.22491612      -2.19431790       0.22293158
H        0.53376721      -1.54375058       3.50641015
H       -2.18117678      -4.45587509       4.47448366
H       -6.33676988      -2.88957491       3.70509810
H       -6.44649249       1.94658652       4.97357987
H       -4.11727000       2.27267570       5.73804531
H       -2.49239060       0.36754408       5.70254457
C       -0.00445707       0.01189536      -1.78238275
H       -0.66409135       0.67374010      -2.43557963
H        0.65740317      -0.63156657      -2.45157240
C       -0.90989263      -0.90692880      -0.91072765
C        0.90977584       0.90977584      -0.90977584
C       -0.00465871       1.77757030       0.00794375
H       -0.66225468       2.44313916      -0.64384735
H        0.64322798       2.43503045       0.67728295
C       -1.78241447       0.00034974      -0.00472694
H       -2.45427497      -0.65498947       0.64260836
H       -2.43311707       0.67328779      -0.65473579
C       -0.91132561       0.90220522       0.91563759
C       -0.01476271      -0.02253852       1.78660255
H       -0.67934791      -0.69751639       2.42135241
H        0.63392994       0.61504881       2.47327442
C        0.01484550      -1.77751727      -0.01636693
H        0.67870853      -2.42144646      -0.68295456
H       -0.62264859      -2.45592969       0.64226336
C        1.78714474       0.01002794       0.00389507
H        2.44202412       0.67113390       0.66197326
H        2.45385902      -0.65136977      -0.64189061
C        0.91606151      -0.90478549       0.90901405
