165
Properties=species:S:1:pos:R:3 pbc="F F F"
C        0.00000000       0.00000000       0.00000000
C        4.54713618       3.54488129      -2.98387266
O        3.22865261       3.21258178      -3.41031987
C        2.49514492       2.50640000      -2.48849070
C        1.80386867       1.41494965      -3.03703950
C        1.00526539       0.59780097      -2.23745841
C        0.88185566       0.88185566      -0.88185566
C        1.54442333       1.97593554      -0.32982536
C        2.35980775       2.81067976      -1.11996267
C        2.96352733       3.99903016      -0.48325815
H        2.93964670       4.90972139      -1.07575833
N        3.41987166       3.88605934       0.77127532
N        3.87742068       5.12771313       1.27716865
C        4.19472352       5.30634915       2.60524650
O        4.58708018       6.40619325       3.00557530
C        4.02197316       4.09503283       3.55073405
O        3.62825002       4.40056846       4.88860716
C        2.34371938       4.83929546       5.08942865
C        1.37962119       4.97442982       4.08517167
C        0.10760268       5.48097453       4.37631593
C       -0.22902890       5.86415752       5.67694660
C       -1.58907805       6.42301742       5.97032296
C        0.71316311       5.68738952       6.69520935
C        1.98723992       5.18326496       6.40197338
H        4.93738742       2.88463228      -2.20014879
H        4.58522946       4.59308752      -2.67289271
H        5.20737950       3.44193785      -3.85215420
H        1.90283349       1.20012070      -4.09690084
H        0.48609810      -0.24776917      -2.67977114
H        1.42342911       2.20599914       0.72660573
H        3.94129216       5.92525123       0.65921136
H        5.01457470       3.63430247       3.62017433
H        3.36112264       3.31976350       3.15325557
H        1.58585448       4.71086705       3.05071347
H       -0.60805997       5.58796854       3.56346123
H       -1.59950628       6.95645906       6.92573186
H       -2.32678668       5.61703837       6.01181142
H       -1.88187965       7.13888472       5.19598263
H        0.46133517       5.95620000       7.71725867
C        2.90973548       5.03430002       7.49760625
C        3.68232550       4.90954188       8.41519878
Br       4.93153823       4.70781852       9.89886830
C       -3.18480860      -4.60453135      -3.28655018
O       -3.40747642      -3.19758664      -3.24649121
C       -2.48694452      -2.49824610      -2.50484500
C       -3.06103370      -1.54148479      -1.65333933
C       -2.26435068      -0.73961931      -0.83655477
C       -0.88185566      -0.88185566      -0.88185566
C       -0.29869613      -1.81177334      -1.73971476
C       -1.08657879      -2.63462744      -2.56924396
C       -0.39581190      -3.53787612      -3.51212762
H       -0.82562896      -3.59064627      -4.50885119
N        0.72044014      -4.15414230      -3.10095351
N        1.31938529      -4.90508065      -4.14226980
C        2.57773421      -5.45143721      -4.02212316
O        3.06427029      -6.09666102      -4.95530740
C        3.33986107      -5.20708657      -2.69904644
O        4.75822447      -5.08815093      -2.81028486
C        5.25746730      -3.95313159      -3.39792191
C        4.48103591      -2.88681139      -3.86310385
C        5.07614142      -1.79039465      -4.49800805
C        6.45986046      -1.73540519      -4.68263729
C        7.08142995      -0.56351511      -5.38153125
C        7.24747714      -2.77496576      -4.17785466
C        6.65033688      -3.87350225      -3.54536614
H       -2.59806389      -4.98306609      -2.44103851
H       -2.72778326      -4.88255678      -4.24086964
H       -4.16506840      -5.09211334      -3.24428981
H       -4.14125400      -1.43402027      -1.62458075
H       -2.72895615      -0.01161155      -0.17753235
H        0.78460646      -1.90012816      -1.78730082
H        0.83119894      -5.01826243      -5.02026853
H        3.15327922      -6.09650731      -2.08547475
H        2.95572996      -4.36142897      -2.12193155
H        3.39818926      -2.87842860      -3.76576873
H        4.43541540      -0.98965573      -4.86220701
H        8.09326265      -0.79940180      -5.72508177
H        7.13278198       0.29448019      -4.70570244
H        6.49446215      -0.29125994      -6.26422465
H        8.32748313      -2.73813760      -4.28962203
C        7.52098081      -4.91103259      -3.05637746
C        8.25014511      -5.77996426      -2.64684945
Br       9.42914211      -7.18495326      -1.98467729
C       -4.54176932       3.55954196       2.97457885
O       -3.23051187       3.21088969       3.41015271
C       -2.49497738       2.50646104       2.48859719
C       -1.81909798       1.40348814       3.03327169
C       -1.02065838       0.58635020       2.23351618
C       -0.88185566       0.88185566       0.88185566
C       -1.52897173       1.98722018       0.33399232
C       -2.34393811       2.82219805       1.12431402
C       -2.93053570       4.02206040       0.49321954
H       -2.90374296       4.92692375       1.09445971
N       -3.37608829       3.92508834      -0.76652095
N       -3.81726215       5.17565456      -1.26495155
C       -4.12037505       5.36964099      -2.59418988
O       -4.49867755       6.47681245      -2.98779186
C       -3.95003495       4.16561924      -3.54938226
O       -3.54090912       4.47989490      -4.88059271
C       -2.25051168       4.90836838      -5.06529387
C       -1.29468813       5.02505729      -4.05086608
C       -0.01531961       5.52230226      -4.32536059
C        0.33709306       5.91440852      -5.61913343
C        1.70499319       6.46315654      -5.89454695
C       -0.59708255       5.75601405      -6.64775331
C       -1.87850631       5.26118889      -6.37116369
H       -4.93076653       2.91032892       2.18107304
H       -4.56716163       4.61091364       2.67313441
H       -5.21108466       3.45472614       3.83566075
H       -1.93002977       1.17972923       4.09009602
H       -0.51358109      -0.26815423       2.67267320
H       -1.39590274       2.22597312      -0.71905335
H       -3.87950818       5.96796311      -0.64013926
H       -4.94619094       3.71491674      -3.63240483
H       -3.30020964       3.38049420      -3.15307328
H       -1.51309424       4.75381502      -3.02090120
H        0.69362892       5.61497526      -3.50489900
H        1.72938339       7.00535959      -6.84475528
H        2.43551415       5.65069332      -5.93673889
H        1.99715608       7.16898746      -5.11080893
H       -0.33315364       6.03195886      -7.66483600
C       -2.79199998       5.13113094      -7.47670168
C       -3.55705093       5.02220741      -8.40258975
Br      -4.79407361       4.84608728      -9.89967244
C        3.50244124      -4.56147220       3.01197669
O        3.38824842      -3.16931337       3.29399247
C        2.48622568      -2.50195969       2.50185024
C        2.96784796      -1.27930802       2.00870184
C        2.17375434      -0.47291686       1.19385356
C        0.88185566      -0.88185566       0.88185566
C        0.38401400      -2.08216582       1.38400441
C        1.17228383      -2.91324904       2.20491732
C        0.54944373      -4.12877898       2.76759293
H        0.78205436      -4.33395031       3.80912175
N       -0.28957332      -4.83037780       1.99385119
N       -0.87979135      -5.90672322       2.70103329
C       -1.92606863      -6.63779515       2.18409965
O       -2.41374380      -7.56640724       2.83503470
C       -2.45871945      -6.23579525       0.78919614
O       -3.85930505      -6.41839064       0.58112573
C       -4.71596109      -5.57143339       1.23811389
C       -4.31775820      -4.51847207       2.06816547
C       -5.26555793      -3.73772325       2.74009595
C       -6.63190662      -3.99207401       2.59801463
C       -7.63498929      -3.15964062       3.33896507
C       -7.03959216      -5.01226872       1.73266672
C       -6.08980990      -5.79522367       1.06311774
H        3.19396842      -4.83289534       1.99530473
H        2.95171124      -5.13967749       3.75982095
H        4.56005235      -4.82968647       3.11173273
H        3.97689080      -0.96485556       2.25810866
H        2.56879604       0.46532241       0.81462642
H       -0.63607817      -2.38346746       1.15543322
H       -0.55467757      -6.13017708       3.63183252
H       -1.95328746      -6.90203238       0.07995793
H       -2.18382922      -5.22020651       0.49125328
H       -3.26966675      -4.28163566       2.23403916
H       -4.91441448      -2.93958824       3.39127358
H       -8.60821417      -3.65815619       3.38127889
H       -7.75913920      -2.19161380       2.84596568
H       -7.30814379      -2.99824849       4.37091774
H       -8.09845026      -5.20892005       1.58980670
C       -6.58007517      -6.83300863       0.19349578
C       -6.99067233      -7.70215353      -0.53481261
Br      -7.65457321      -9.10748733      -1.71242567
