186
Properties=species:S:1:pos:R:3 pbc="F F F"
C        5.45704021       4.45478531      -3.89377669
O        4.13855664       4.12248580      -4.32022390
C        3.40504894       3.41630402      -3.39839473
C        2.71377270       2.32485368      -3.94694352
C        1.91516941       1.50770499      -3.14736243
C        1.79175969       1.79175969      -1.79175969
C        2.45432736       2.88583957      -1.23972938
C        3.26971178       3.72058378      -2.02986670
C        3.87343135       4.90893418      -1.39316217
H        3.84955072       5.81962542      -1.98566235
N        4.32977569       4.79596336      -0.13862870
N        4.78732470       6.03761715       0.36726463
C        5.10462754       6.21625317       1.69534248
O        5.49698420       7.31609727       2.09567127
C        4.93187718       5.00493685       2.64083002
O        4.53815404       5.31047249       3.97870314
C        3.25362340       5.74919948       4.17952462
C        2.28952521       5.88433384       3.17526764
C        1.01750671       6.39087855       3.46641190
C        0.68087512       6.77406155       4.76704257
C       -0.67917403       7.33292144       5.06041894
C        1.62306713       6.59729355       5.78530532
C        2.89714395       6.09316899       5.49206935
H        5.84729144       3.79453631      -3.11005281
H        5.49513348       5.50299154      -3.58279673
H        6.11728353       4.35184187      -4.76205822
H        2.81273751       2.11002472      -5.00680486
H        1.39600212       0.66213485      -3.58967516
H        2.33333314       3.11590316      -0.18329829
H        4.85119618       6.83515526      -0.25069266
H        5.92447873       4.54420650       2.71027031
H        4.27102666       4.22966753       2.24335155
H        2.49575850       5.62077108       2.14080944
H        0.30184405       6.49787256       2.65355720
H       -0.68960226       7.86636309       6.01582784
H       -1.41688265       6.52694239       5.10190739
H       -0.97197562       8.04878874       4.28607861
H        1.37123919       6.86610402       6.80735465
C        3.81963950       5.94420404       6.58770223
C        4.59222953       5.81944590       7.50529476
Br       5.84144226       5.61772254       8.98896428
C       -4.07866127      -5.51298149      -4.21395945
O       -4.31795239      -4.10948471      -4.15382924
C       -3.39693168      -3.40793021      -3.41488580
C       -3.97208947      -2.46877775      -2.54470267
C       -3.17522156      -1.66715809      -1.72785718
C       -1.79175969      -1.79175969      -1.79175969
C       -1.20793855      -2.70388317      -2.66807459
C       -1.99590885      -3.52622432      -3.49802910
C       -1.30587093      -4.40931837      -4.46033841
H       -1.74728042      -4.45523446      -5.45232362
N       -0.17720010      -5.01672873      -4.07043892
N        0.41795844      -5.74746858      -5.12816708
C        1.68426101      -6.27967851      -5.03012074
O        2.16707313      -6.90742513      -5.97705820
C        2.45962234      -6.04208815      -3.71351820
O        3.87494968      -5.90431059      -3.84056248
C        4.35302918      -4.75613745      -4.42018999
C        3.55797505      -3.69388877      -4.86267769
C        4.13179007      -2.58255319      -5.49121023
C        5.51235210      -2.50824508      -5.69200111
C        6.11091738      -1.32034087      -6.38390498
C        6.31875232      -3.54408288      -5.20972479
C        5.74289889      -4.65753355      -4.58360892
H       -3.47695606      -5.89452545      -3.38039905
H       -3.63009255      -5.77369153      -5.17713768
H       -5.05230825      -6.01310250      -4.16577287
H       -5.05310236      -2.37501078      -2.50145395
H       -3.64049892      -0.95302721      -1.05428600
H       -0.12430913      -2.77827575      -2.72994970
H       -0.07960997      -5.85595484      -6.00147929
H        2.29148289      -6.94115729      -3.10874052
H        2.07236222      -5.20833352      -3.12137134
H        2.47639033      -3.70005700      -4.75205347
H        3.47690465      -1.78540213      -5.83766193
H        7.12123368      -1.53951723      -6.74264945
H        6.16014269      -0.47007954      -5.69821549
H        5.50982585      -1.04460999      -7.25595037
H        7.39676756      -3.49256961      -5.33418652
C        6.63209422      -5.69012427      -4.11811126
C        7.37679530      -6.55491900      -3.72825698
Br       8.58091398      -7.95321893      -3.09789556
C       -5.48907912       4.35013280       3.96639027
O       -4.12557073       4.13525513       4.32044048
C       -3.40627001       3.41578740       3.39769028
C       -2.60606778       2.41281569       3.96668643
C       -1.80623232       1.59568369       3.16832083
C       -1.79175969       1.79175969       1.79175969
C       -2.56379606       2.79898024       1.21712001
C       -3.38218205       3.63187133       2.00610888
C       -4.10775732       4.73085560       1.33691479
H       -4.10893894       5.68033759       1.86556197
N       -4.63603534       4.50093161       0.12740080
N       -5.21129329       5.67166142      -0.42527749
C       -5.62634836       5.73594719      -1.73675731
O       -6.11990925       6.77715176      -2.17965080
C       -5.43147823       4.47539006      -2.61088428
O       -5.14827485       4.71173891      -3.99009038
C       -3.91340667       5.21829981      -4.30840822
C       -2.89759440       5.48595155      -3.38495455
C       -1.68581842       6.05289009      -3.79673516
C       -1.46243927       6.36540493      -5.13995011
C       -0.16683797       6.99001120      -5.56352069
C       -2.45445082       6.05676210      -6.07615757
C       -3.66830822       5.49224439      -5.66230903
H       -5.88257729       3.61265754       3.25664573
H       -5.62055761       5.36931358       3.59105057
H       -6.08240300       4.26522670       4.88355392
H       -2.62035717       2.26657669       5.04263324
H       -1.20147032       0.81880209       3.62753972
H       -2.52841893       2.96206227       0.14205340
H       -5.29025478       6.50455787       0.14223145
H       -6.39186597       3.94710255      -2.58055360
H       -4.69352311       3.77460565      -2.21078612
H       -3.01691360       5.28242229      -2.32361575
H       -0.92783470       6.26293176      -3.04460705
H       -0.25612453       7.45492039      -6.55011193
H        0.62110463       6.23299986      -5.60374288
H        0.12515773       7.77583059      -4.85993835
H       -2.28930244       6.26935951      -7.12867339
C       -4.64770885       5.20715638      -6.67872391
C       -5.46795688       4.96839517      -7.52997138
Br      -6.79422857       4.58233849      -8.90636655
C        3.81244780      -5.39630909       4.59684532
O        4.31724510      -4.15697056       4.10705068
C        3.39950415      -3.40346056       3.41678298
C        3.90048056      -2.86274357       2.22234577
C        3.09916818      -2.06563756       1.40543109
C        1.79175969      -1.79175969       1.79175969
C        1.29003633      -2.30344887       2.98641111
C        2.08219375      -3.11480684       3.82316167
C        1.51036503      -3.55210667       5.11305601
H        2.18551723      -3.50595652       5.96336475
N        0.21630005      -3.89678203       5.15128567
N       -0.20825437      -4.19679598       6.46913562
C       -1.53600762      -4.37167416       6.78987170
O       -1.86356603      -4.62907412       7.95190211
C       -2.57263326      -4.21544028       5.65317698
O       -3.83728069      -3.67326097       6.03394312
C       -3.88527205      -2.34271255       6.36585777
C       -2.79387308      -1.46902635       6.32343814
C       -2.92616754      -0.13660749       6.73153340
C       -4.15148399       0.35210297       7.19148106
C       -4.27354380       1.77653107       7.64340335
C       -5.25880279      -0.50210820       7.19174995
C       -5.12438296      -1.83655750       6.78606903
H        2.93971698      -5.76647080       4.04569279
H        3.59902517      -5.31511908       5.66677751
H        4.60747153      -6.14145256       4.48225954
H        4.92312991      -3.07870831       1.92772888
H        3.50308170      -1.66460526       0.48012517
H        0.27410565      -2.06464957       3.29377937
H        0.47401847      -4.24976947       7.21325617
H       -2.76976525      -5.23296428       5.29521589
H       -2.19445844      -3.66364451       4.78815658
H       -1.81018219      -1.79318380       5.99271853
H       -2.04854540       0.50619455       6.70089937
H       -5.17029284       1.92217961       8.25340545
H       -4.32707469       2.44309795       6.77832498
H       -3.41325408       2.05567795       8.25966654
H       -6.22578663      -0.13343956       7.52233564
C       -6.30415012      -2.66159375       6.81869769
C       -7.29220512      -3.35256161       6.84602419
Br      -8.88980649      -4.46979819       6.89020883
C       -0.00445707       0.01189536      -1.78238275
H       -0.66409135       0.67374010      -2.43557963
H        0.65740317      -0.63156657      -2.45157240
C       -0.90989263      -0.90692880      -0.91072765
C        0.90977584       0.90977584      -0.90977584
C       -0.00465871       1.77757030       0.00794375
H       -0.66225468       2.44313916      -0.64384735
H        0.64322798       2.43503045       0.67728295
C       -1.78241447       0.00034974      -0.00472694
H       -2.45427497      -0.65498947       0.64260836
H       -2.43311707       0.67328779      -0.65473579
C       -0.91132561       0.90220522       0.91563759
C       -0.01476271      -0.02253852       1.78660255
H       -0.67934791      -0.69751639       2.42135241
H        0.63392994       0.61504881       2.47327442
C        0.01484550      -1.77751727      -0.01636693
H        0.67870853      -2.42144646      -0.68295456
H       -0.62264859      -2.45592969       0.64226336
C        1.78714474       0.01002794       0.00389507
H        2.44202412       0.67113390       0.66197326
H        2.45385902      -0.65136977      -0.64189061
C        0.91606151      -0.90478549       0.90901405
