198
Properties=species:S:1:pos:R:3 pbc="F F F"
C        4.11002227       8.27269192      -5.28913095
C        3.30754843       7.39143419      -6.23572648
C        4.18313291       6.44845216      -7.09038051
C        5.01915251       5.45155774      -6.27357291
C        4.15060523       4.46585471      -5.54386094
C        4.26483213       4.26248460      -4.21802536
C        3.40854934       3.40613129      -3.39550413
C        2.20756375       3.90634949      -2.87812284
C        1.39861908       3.09903905      -2.07469231
C        1.79189065       1.79189065      -1.79189065
C        2.98336443       1.28362936      -2.30644059
C        3.79234234       2.09241494      -3.10826023
C        3.12788303       3.75622719      -6.37438707
O        2.84276146       2.57514535      -6.21513289
C        2.48975777       4.58860585      -7.44162550
C        1.20085835       4.30393984      -7.70632631
C        0.37881942       5.03277084      -8.67058240
C       -0.41319497       6.10116570      -8.23388178
C       -1.19489187       6.81414791      -9.14487320
C       -1.18268261       6.45676188     -10.49193422
Br      -2.24102295       7.42140622     -11.72611818
C       -0.39693061       5.39350608     -10.93624575
C        0.38537827       4.68126185     -10.02411940
C        3.32411430       5.65849204      -8.09260354
H        3.44986718       8.99929489      -4.80437221
H        4.88531903       8.82636595      -5.82772889
H        4.58656308       7.68469066      -4.49947192
H        2.73759628       8.04539180      -6.90785639
H        2.56860723       6.82911293      -5.65355678
H        4.87671573       7.07436093      -7.66821342
H        5.68274462       5.98813885      -5.58600013
H        5.68171774       4.89399519      -6.94946106
H        5.02149849       4.79818398      -3.64871751
H        1.89440635       4.92429234      -3.09622281
H        0.46840727       3.49639984      -1.67822813
H        3.28830054       0.26205337      -2.09777725
H        4.71292311       1.68646609      -3.52041874
H        0.68428524       3.50399264      -7.17669906
H       -0.42610275       6.38334117      -7.18319886
H       -1.80699791       7.64074939      -8.79468009
H       -0.38762949       5.11112574     -11.98539551
H        0.99499312       3.85140639     -10.37382724
H        3.98778761       5.16983109      -8.81878238
H        2.71212558       6.36155058      -8.66858484
C       -8.32039601      -4.25689841      -5.09455072
C       -7.97113287      -5.09238294      -3.87119329
C       -7.15598133      -6.36154477      -4.20443948
C       -5.79704145      -6.08286245      -4.86437925
C       -4.86174590      -5.36951477      -3.92906021
C       -4.24857656      -4.22201065      -4.27475490
C       -3.40238516      -3.39701537      -3.41078424
C       -3.98278537      -2.44290220      -2.56634850
C       -3.17701325      -1.63869388      -1.75664330
C       -1.79189065      -1.79189065      -1.79189065
C       -1.20534875      -2.74234623      -2.62573941
C       -2.01199504      -3.54473749      -3.43628497
C       -4.68655106      -5.99225760      -2.57968861
O       -3.60941567      -6.02717679      -1.99644723
C       -5.92350938      -6.59979284      -1.99668690
C       -6.03215651      -6.52186538      -0.65710261
C       -7.18398693      -7.00219955       0.10401382
C       -8.22205994      -6.11682718       0.41703460
C       -9.33402557      -6.56356051       1.13345683
C       -9.40547094      -7.89609895       1.53555641
Br     -10.91058645      -8.50181554       2.50590054
C       -8.37586969      -8.78546996       1.22851843
C       -7.26410721      -8.33770193       0.51104961
C       -6.92085730      -7.21081123      -2.94354134
H       -8.99748521      -3.44429536      -4.81175370
H       -8.81920803      -4.86328049      -5.85692536
H       -7.42999017      -3.80236564      -5.53836985
H       -8.90848549      -5.39497582      -3.38738316
H       -7.44294772      -4.45854342      -3.14978579
H       -7.75205956      -6.96328230      -4.90394822
H       -5.93651043      -5.52378586      -5.79658730
H       -5.33347662      -7.03483728      -5.15686009
H       -4.40167174      -3.80067678      -5.26605145
H       -5.06237544      -2.31955048      -2.53299558
H       -3.63703061      -0.90139540      -1.10460923
H       -0.12709928      -2.87279035      -2.64824152
H       -1.55093150      -4.29562561      -4.07325083
H       -5.24918221      -6.05755014      -0.05824458
H       -8.17027108      -5.07567650       0.10551030
H      -10.13330912      -5.86734531       1.37222287
H       -8.42782656      -9.82416206       1.54309685
H       -6.46222938      -9.03345712       0.27545974
H       -6.53598992      -8.19405462      -3.24635653
H       -7.88431020      -7.40055079      -2.45740001
C       -4.89887468       8.35260584       4.42036461
C       -3.73690762       7.90312470       5.29467678
C       -4.17173368       7.04611207       6.50411983
C       -4.88091573       5.73673626       6.12663117
C       -3.95670590       4.79086113       5.41275386
C       -4.27336259       4.25115304       4.22082647
C       -3.41049538       3.40306149       3.39662790
C       -2.49265995       3.98528186       2.51409426
C       -1.68304243       3.17923835       1.71006965
C       -1.79189065       1.79189065       1.79189065
C       -2.69927406       1.20318769       2.67097263
C       -3.50959732       2.01023196       3.47318822
C       -2.65008128       4.51886426       6.08955174
O       -2.12132046       3.41344738       6.09827185
C       -2.03992719       5.69472753       6.78533440
C       -0.69446748       5.73977884       6.77687818
C        0.09568485       6.82786522       7.34999229
C        0.50174885       7.88998653       6.53361484
C        1.24709566       8.94214199       7.06908291
C        1.58494140       8.92977928       8.42117560
Br       2.59438348      10.35385754       9.14702739
C        1.18504952       7.87561943       9.24225130
C        0.43872010       6.82376833       8.70571130
C       -2.96756545       6.70796119       7.39968324
H       -4.54380956       9.05265107       3.65707364
H       -5.66600326       8.85948299       5.01392763
H       -5.36131998       7.50820749       3.90119818
H       -3.22472435       8.79959760       5.66652252
H       -3.01067387       7.37030385       4.67029921
H       -4.87127835       7.64709757       7.10091416
H       -5.77626382       5.94917799       5.53144178
H       -5.24244057       5.24354681       7.03918661
H       -5.23390287       4.47358090       3.76091620
H       -2.40175764       5.06650002       2.44666384
H       -0.97373843       3.64066027       1.02863653
H       -2.77964261       0.12242579       2.74606275
H       -4.20459921       1.54636444       4.16884429
H       -0.11111901       4.95083228       6.30302565
H        0.24061384       7.90353717       5.47751395
H        1.55823352       9.76074602       6.42591907
H        1.44936242       7.86220071      10.29605347
H        0.13065019       6.00243919       9.34843775
H       -3.33721415       6.29230797       8.34687896
H       -2.44616393       7.63573405       7.66036303
C        8.28790267      -4.15062936       5.23331311
C        8.00843137      -4.95470304       3.97157469
C        7.22677477      -6.26096685       4.23422397
C        5.83787105      -6.05046638       4.85594572
C        4.91020782      -5.33686393       3.91324913
C        4.24679293      -4.22294117       4.27560800
C        3.40192134      -3.39731031       3.41095312
C        3.97691999      -2.39596090       2.61915519
C        3.17133237      -1.59161555       1.80940251
C        1.79189065      -1.79189065       1.79189065
C        1.21098349      -2.78942678       2.57302412
C        2.01735386      -3.59195698       3.38370665
C        4.80147938      -5.91832038       2.53869753
O        3.74616419      -5.96894933       1.91792617
C        6.07729109      -6.46399762       1.97870042
C        6.22766237      -6.33648710       0.64697503
C        7.41999042      -6.75181412      -0.08963188
C        8.43683747      -5.82218613      -0.33717108
C        9.58670536      -6.20681265      -1.02938877
C        9.71725334      -7.52162554      -1.47286540
Br      11.27372819      -8.04325410      -2.41048084
C        8.70920470      -8.45476028      -1.23114377
C        7.55946937      -8.06912947      -0.53783932
C        7.06303371      -7.07372188       2.93845428
H        8.94567647      -3.30672579       5.00113201
H        8.78165256      -4.76595079       5.99181052
H        7.36813425      -3.74147435       5.66111707
H        8.97119781      -5.20915644       3.51049023
H        7.48303609      -4.31434059       3.25390025
H        7.81960954      -6.86625430       4.93342624
H        5.92697021      -5.51944695       5.81046643
H        5.39784762      -7.02681765       5.10050873
H        4.35227480      -3.83108564       5.28503954
H        5.05214202      -2.23571778       2.62706170
H        3.62714550      -0.81744989       1.19843984
H        0.13770507      -2.95633652       2.55408956
H        1.56146388      -4.37921339       3.97913066
H        5.44952491      -5.87813796       0.03731406
H        8.33895344      -4.79465983       0.00682401
H       10.36907202      -5.47661599      -1.21725644
H        8.80727355      -9.47972021      -1.57810199
H        6.77460117      -8.79884368      -0.35321809
H        6.70234932      -8.07904535       3.19500640
H        8.04806766      -7.21450336       2.47968999
C       -0.00445707       0.01189536      -1.78238275
H       -0.66409135       0.67374010      -2.43557963
H        0.65740317      -0.63156657      -2.45157240
C       -0.90989263      -0.90692880      -0.91072765
C        0.90977584       0.90977584      -0.90977584
C       -0.00465871       1.77757030       0.00794375
H       -0.66225468       2.44313916      -0.64384735
H        0.64322798       2.43503045       0.67728295
C       -1.78241447       0.00034974      -0.00472694
H       -2.45427497      -0.65498947       0.64260836
H       -2.43311707       0.67328779      -0.65473579
C       -0.91132561       0.90220522       0.91563759
C       -0.01476271      -0.02253852       1.78660255
H       -0.67934791      -0.69751639       2.42135241
H        0.63392994       0.61504881       2.47327442
C        0.01484550      -1.77751727      -0.01636693
H        0.67870853      -2.42144646      -0.68295456
H       -0.62264859      -2.45592969       0.64226336
C        1.78714474       0.01002794       0.00389507
H        2.44202412       0.67113390       0.66197326
H        2.45385902      -0.65136977      -0.64189061
C        0.91606151      -0.90478549       0.90901405
