185
Properties=species:S:1:pos:R:3 pbc="F F F"
C        0.00000000       0.00000000       0.00000000
C        3.20011824       7.36278789      -4.37922693
C        2.39764440       6.48153017      -5.32582245
C        3.27322889       5.53854813      -6.18047649
C        4.10924849       4.54165372      -5.36366888
C        3.24070120       3.55595069      -4.63395692
C        3.35492811       3.35258058      -3.30812134
C        2.49864532       2.49622727      -2.48560011
C        1.29765972       2.99644547      -1.96821881
C        0.48871505       2.18913502      -1.16478828
C        0.88198663       0.88198663      -0.88198663
C        2.07346041       0.37372533      -1.39653657
C        2.88243831       1.18251091      -2.19835620
C        2.21797900       2.84632316      -5.46448305
O        1.93285743       1.66524132      -5.30522886
C        1.57985375       3.67870182      -6.53172148
C        0.29095433       3.39403582      -6.79642228
C       -0.53108461       4.12286682      -7.76067838
C       -1.32309899       5.19126168      -7.32397775
C       -2.10479589       5.90424388      -8.23496918
C       -2.09258664       5.54685785      -9.58203019
C       -1.30683464       4.48360205     -10.02634173
C       -0.52452575       3.77135783      -9.11421538
C        2.41421028       4.74858802      -7.18269951
H        2.53996315       8.08939086      -3.89446818
H        3.97541501       7.91646193      -4.91782487
H        3.67665906       6.77478664      -3.58956789
H        1.82769226       7.13548777      -5.99795237
H        1.65870320       5.91920890      -4.74365275
H        3.96681170       6.16445691      -6.75830939
H        4.77284059       5.07823482      -4.67609610
H        4.77181372       3.98409117      -6.03955703
H        4.11159446       3.88827996      -2.73881348
H        0.98450233       4.01438832      -2.18631878
H       -0.44149676       2.58649581      -0.76832410
H        2.37839651      -0.64785066      -1.18787322
H        3.80301908       0.77656206      -2.61051472
H       -0.22561878       2.59408861      -6.26679503
H       -1.33600677       5.47343715      -6.27329483
H       -2.71690193       6.73084536      -7.88477606
H       -1.29753351       4.20122172     -11.07549149
H        0.08508910       2.94150237      -9.46392322
H        3.07788358       4.25992706      -7.90887836
H        1.80222155       5.45164656      -7.75868082
C       -2.89874565       6.28164675     -10.52213281
C       -3.57390382       6.89703245     -11.30946875
Br      -4.66557748       7.89205908     -12.58252438
C       -5.48912649      -6.82636692      -2.62663965
C       -4.05374570      -7.09633233      -3.05491899
C       -3.76483344      -6.70604260      -4.52137747
C       -3.97027145      -5.21509088      -4.82920876
C       -2.98004645      -4.35529533      -4.09526703
C       -3.36899498      -3.32315999      -3.32347506
C       -2.50142963      -2.48857677      -2.49046630
C       -2.16877633      -2.89951484      -1.19403283
C       -1.35904906      -2.09524765      -0.38834165
C       -0.88198663      -0.88198663      -0.88198663
C       -1.20385070      -0.46685154      -2.17302006
C       -2.01508726      -1.27108587      -2.97713230
C       -1.54217838      -4.74199603      -4.24461080
O       -0.63801401      -3.92093366      -4.34437995
C       -1.28369542      -6.21510362      -4.29147800
C       -0.12459421      -6.61856949      -3.73824873
C        0.29297020      -8.01524246      -3.63018834
C        0.00482957      -8.73331728      -2.46365273
C        0.38709244     -10.07133688      -2.35017273
C        1.05725428     -10.68888650      -3.40466919
C        1.34893041      -9.98133785      -4.57070169
C        0.96539296      -8.64289171      -4.68354870
C       -2.33080808      -7.09353563      -4.92115410
H       -5.66389862      -7.23421474      -1.62570883
H       -6.20044326      -7.29656493      -3.31269361
H       -5.70136238      -5.75414397      -2.58550724
H       -3.85878543      -8.16935971      -2.93298726
H       -3.37639797      -6.58001117      -2.36515572
H       -4.45334875      -7.27845792      -5.15777134
H       -5.00176617      -4.92083657      -4.60456878
H       -3.84243447      -5.04597340      -5.90705405
H       -4.42465606      -3.07350234      -3.24052950
H       -2.53624906      -3.84526496      -0.80369541
H       -1.10636612      -2.42311812       0.61616109
H       -0.82523500       0.47258547      -2.56576956
H       -2.25038177      -0.95061643      -3.98909766
H        0.57017464      -5.89843619      -3.30700331
H       -0.51775703      -8.25512235      -1.63784582
H        0.15960306     -10.61874102      -1.43958154
H        1.87362248     -10.45960452      -5.39319766
H        1.19653253      -8.09376322      -5.59328400
H       -2.23137978      -7.00389546      -6.01141377
H       -2.17052968      -8.15243281      -4.68958644
C        1.45200559     -12.06881813      -3.28822137
C        1.78260981     -13.22451087      -3.19069632
Br       2.31716887     -15.09316829      -3.03300656
C       -3.35958216       4.16885507       7.41369584
C       -4.19844294       2.95012929       7.05642479
C       -5.46311389       3.29148324       6.23765638
C       -5.17657572       3.95560354       4.88239183
C       -4.46322477       3.02114971       3.94623434
C       -3.31200537       3.36474692       3.33887774
C       -2.48707881       2.50085916       2.49253473
C       -1.53852165       1.65046310       3.07333926
C       -0.73432857       0.84076406       2.26754573
C       -0.88198663       0.88198663       0.88198663
C       -1.82690343       1.72180546       0.29501343
C       -2.62927961       2.53233437       1.10169145
C       -5.09051496       1.67490643       3.76336382
O       -5.12349947       1.09599262       2.68383553
C       -5.70512680       1.08947863       4.99567162
C       -5.63282579      -0.25081105       5.09939770
C       -6.12059827      -1.01451618       6.24637849
C       -5.24050144      -1.33501453       7.28665354
C       -5.69434464      -2.05400232       8.39407485
C       -7.02870282      -2.45117870       8.45877729
C       -7.91285447      -2.13668035       7.42693502
C       -7.45797332      -1.41665082       6.31972495
C       -6.31634711       2.03482783       5.99432286
H       -2.55072898       3.88026542       8.09282779
H       -3.96493917       4.93164506       7.91311758
H       -2.89986187       4.61435314       6.52679858
H       -4.50656394       2.46386624       7.99070222
H       -3.56535532       2.22831286       6.52789668
H       -6.06444970       3.99101248       6.83411583
H       -4.61443141       4.88507650       5.02766360
H       -6.12559332       4.25359104       4.41627756
H       -2.88742539       4.35379153       3.49747099
H       -1.41950979       1.61243767       4.15326196
H       -0.00136641       0.18407940       2.72787735
H       -1.95305493       1.74900267      -0.78363852
H       -3.37588563       3.17400808       0.64020215
H       -5.16779078      -0.84842966       4.31590374
H       -4.19795496      -1.02735250       7.24012275
H       -5.00218293      -2.29858245       9.19511901
H       -8.95295493      -2.44740670       7.47363147
H       -8.14967725      -1.17523853       5.51607597
H       -7.29689946       2.34296582       5.60682373
H       -6.51172729       1.54569233       6.95512930
C       -7.49742162      -3.19295133       9.60056363
C       -7.88997361      -3.81418592      10.55680968
Br      -8.52469699      -4.81866969      12.10297868
C        5.27389262      -2.70366830       6.96457215
C        6.12624326      -2.31320639       5.76554737
C        6.56847112      -3.51800191       4.90578048
C        5.40720050      -4.31495562       4.29241497
C        4.64480088      -3.49947895       3.28632898
C        3.30963065      -3.34472057       3.36127881
C        2.48561987      -2.49612435       2.49872848
C        2.32506711      -1.13809895       2.79915795
C        1.52176735      -0.33010746       1.99076354
C        0.88198663      -0.88198663       0.88198663
C        1.03975029      -2.23174889       0.57222313
C        1.84183864      -3.03913512       1.38233167
C        5.46560482      -2.84048136       2.22269903
O        5.09721547      -2.74850549       1.05760666
C        6.79264157      -2.31991728       2.67771819
C        7.21778638      -1.19971255       2.06391349
C        8.45657484      -0.49887086       2.39701488
C        8.42721661       0.55403715       3.31896098
C        9.60405432       1.22549346       3.65585631
C       10.80885084       0.84201359       3.06946416
C       10.84780590      -0.20569148       2.14961176
C        9.66993815      -0.87733959       1.81376972
C        7.50515640      -3.06934041       3.77100099
H        5.09667319      -1.82870943       7.59843958
H        5.77244894      -3.46586570       7.57138716
H        4.29753850      -3.08791259       6.65556250
H        7.02234337      -1.80080219       6.13798684
H        5.57737499      -1.57746245       5.16672742
H        7.13597438      -4.19770399       5.55589963
H        4.74973119      -4.69476793       5.08267240
H        5.80518587      -5.20461778       3.78565827
H        2.74797168      -3.84058711       4.15012911
H        2.82252443      -0.70124219       3.66144281
H        1.40375004       0.72258987       2.23216299
H        0.55200175      -2.66355521      -0.29713789
H        1.97468201      -4.08776605       1.12764780
H        6.62432114      -0.73221225       1.27873147
H        7.48889652       0.85700971       3.77883840
H        9.56943202       2.04227922       4.37156669
H       11.78527552      -0.50490395       1.68900022
H        9.70381425      -1.69223016       1.09447028
H        7.96669459      -3.95883945       3.32115496
H        8.32818415      -2.48586374       4.19850104
C       12.02297791       1.53425237       3.41630838
C       13.03980933       2.11400236       3.70679041
Br      14.68393974       3.05140905       4.17647529
