166
Properties=species:S:1:pos:R:3 pbc="F F F"
C        1.79108168       1.79108168      -1.79108168
C        1.63795754       3.17360300      -1.76470000
C        2.44451134       3.97469579      -2.57922845
C        3.40921867       3.40376237      -3.42705770
C        3.55111688       2.00831537      -3.43671358
C        2.74391802       1.20572154      -2.62079607
C        4.21661314       4.33465817      -4.27667045
O        4.02984163       5.54762604      -4.20023631
C        5.22842393       3.78105751      -5.21468775
C        5.88566691       4.60837823      -6.03950663
S        7.05952584       3.98782432      -7.15348201
C        6.86224902       5.16293842      -8.41000726
C        7.54296350       5.05401836      -9.55846983
C        7.34434214       6.08202987     -10.61113466
O        6.81660274       7.16208933     -10.37104587
C        7.84351353       5.78170445     -11.97792433
C        8.25361671       6.85428641     -12.78101845
C        8.71584503       6.62547566     -14.07902179
C        8.75547194       5.32465233     -14.57758170
C        8.33305617       4.25157856     -13.79306715
C        7.87307631       4.47863374     -12.49242425
H        0.89703976       3.64005961      -1.12036555
H        2.31118571       5.05574161      -2.55017314
H        4.27475515       1.50069623      -4.06427064
H        2.86717908       0.12531567      -2.64376963
H        5.42385442       2.72024025      -5.24025205
H        5.69484972       5.67942294      -6.01196035
H        6.16796486       5.98929440      -8.26952479
H        8.24335788       4.24838497      -9.73952226
H        8.21404007       7.87237919     -12.39642297
H        9.03477978       7.46630728     -14.68978487
H        8.34855623       3.23848452     -14.18780813
H        7.51893087       3.63167547     -11.91070623
C        9.22769194       5.08680857     -15.91699897
C        9.62317619       4.88761442     -17.03876093
Br      10.26264077       4.56553434     -18.85255515
C       -1.79108168      -1.79108168      -1.79108168
C       -2.82859209      -1.22368640      -2.52398204
C       -3.63600222      -2.03782574      -3.32460761
C       -3.41603827      -3.42395893      -3.40004154
C       -2.36274591      -3.97669862      -2.65670129
C       -1.55362023      -3.16165665      -1.85515876
C       -4.33853622      -4.22126970      -4.26813584
O       -5.23389234      -3.65312653      -4.89068510
C       -4.17010888      -5.69557656      -4.35848375
C       -5.05198339      -6.41832490      -5.06324348
S       -4.88787544      -8.14026036      -5.17269638
C       -6.56457887      -8.54526589      -5.32534995
C       -6.95504342      -9.82561541      -5.37479286
C       -8.40230390     -10.13040638      -5.50479639
O       -9.21476123      -9.28134430      -5.85363241
C       -8.84566374     -11.52255633      -5.23492225
C       -9.97380996     -11.99937816      -5.91573345
C      -10.43967017     -13.29573120      -5.68494111
C       -9.78412288     -14.11017199      -4.76341109
C       -8.67090405     -13.63955213      -4.06724571
C       -8.20143427     -12.34322136      -4.29947867
H       -3.02193766      -0.15483111      -2.48069613
H       -4.44666041      -1.57983271      -3.89060735
H       -2.13509786      -5.03651160      -2.66811256
H       -0.74306958      -3.60894582      -1.28424898
H       -3.35154407      -6.18189118      -3.85091148
H       -5.87524966      -5.92998824      -5.58099511
H       -7.30806358      -7.75147422      -5.36724625
H       -6.24908956     -10.64569979      -5.33647576
H      -10.49308401     -11.36084597      -6.62891225
H      -11.31354016     -13.65433671      -6.22299505
H       -8.16932284     -14.26925016      -3.33627588
H       -7.35227505     -11.98643313      -3.72260439
C      -10.26515766     -15.44558391      -4.52075791
C      -10.66802429     -16.56399138      -4.31753587
Br     -11.31942555     -18.37236168      -3.98894302
C       -1.79108168       1.79108168       1.79108168
C       -2.67936124       1.20786263       2.68903667
C       -3.48820871       2.02116465       3.48906221
C       -3.41853662       3.42207540       3.39942672
C       -2.51406355       3.99122481       2.49085746
C       -1.70351125       3.17710039       1.68982400
C       -4.33247921       4.21471699       4.28074555
O       -5.09125324       3.63270073       5.05375001
C       -4.32213755       5.69927805       4.20275359
C       -5.20400660       6.40398962       4.92555555
S       -5.22376892       8.13505915       4.84200411
C       -6.91136139       8.38374694       5.14008638
C       -7.43590859       9.61571196       5.10383113
C       -8.88772434       9.78588996       5.36389237
O       -9.56061363       8.90382638       5.88529793
C       -9.50924295      11.08726071       5.00663865
C      -10.60941692      11.52137476       5.75812989
C      -11.23850628      12.73015769       5.45167851
C      -10.77451224      13.49800315       4.38519057
C       -9.69133627      13.06679633       3.61956928
C       -9.05853600      11.85856031       3.92703799
H       -2.75504675       0.12689132       2.77552683
H       -4.18129194       1.55022947       4.18557905
H       -2.40666261       5.06313759       2.36992182
H       -1.00982884       3.63689269       0.98954285
H       -3.61853028       6.20555681       3.56025963
H       -5.91101016       5.89637960       5.57884324
H       -7.55316264       7.52886112       5.34476029
H       -6.83379663      10.49321305       4.90425543
H      -10.97938761      10.91779479       6.58565982
H      -12.08842792      13.05700269       6.04544132
H       -9.33965735      13.65786749       2.77732405
H       -8.23715508      11.52667257       3.29748492
C      -11.42417527      14.74254184       4.06478237
C      -11.96826806      15.78484298       3.79644050
Br     -12.84802008      17.47015578       3.36255440
C        1.79108168      -1.79108168       1.79108168
C        1.33700440      -3.04173220       2.19752394
C        2.14705025      -3.84144287       3.00994246
C        3.41554512      -3.40021271       3.42428090
C        3.85718901      -2.13795999       3.00099682
C        3.04647231      -1.33696972       2.18699361
C        4.20794144      -4.31346705       4.30653328
O        3.74536009      -5.40737467       4.62496921
C        5.54246478      -3.88212056       4.79958385
C        6.21050977      -4.66110339       5.66193862
S        7.76139161      -4.17526027       6.26418031
C        7.68048211      -4.93800492       7.81670768
C        8.66913143      -4.77980985       8.70651040
C        8.56068909      -5.44981876      10.02699883
O        7.76239613      -6.35776788      10.22957394
C        9.48490171      -5.01303415      11.10520645
C        9.86241925      -5.95439866      12.07210366
C       10.71670732      -5.58877779      13.11485737
C       11.18275053      -4.27792862      13.19702682
C       10.79920306      -3.32848449      12.25001433
C        9.94663812      -3.69369494      11.20380124
H        0.35858626      -3.40518123       1.89369742
H        1.77689656      -4.81731829       3.32288561
H        4.82371912      -1.73485596       3.28114695
H        3.40535445      -0.36013409       1.87077584
H        5.96506861      -2.94372196       4.47555616
H        5.78939003      -5.61079814       5.98604484
H        6.81129641      -5.53968081       8.07580682
H        9.55112217      -4.19029582       8.48984711
H        9.49129757      -6.97664580      12.01489886
H       11.00486413      -6.33014065      13.85586714
H       11.14969714      -2.30174787      12.32340387
H        9.63535062      -2.93011814      10.49584381
C       12.06024212      -3.89765994      14.27359741
C       12.79514134      -3.57918493      15.17522527
Br      13.98341121      -3.06423777      16.63308128
C       -0.00445707       0.01189536      -1.78238275
H       -0.66409135       0.67374010      -2.43557963
H        0.65740317      -0.63156657      -2.45157240
C       -0.90989263      -0.90692880      -0.91072765
C        0.90977584       0.90977584      -0.90977584
C       -0.00465871       1.77757030       0.00794375
H       -0.66225468       2.44313916      -0.64384735
H        0.64322798       2.43503045       0.67728295
C       -1.78241447       0.00034974      -0.00472694
H       -2.45427497      -0.65498947       0.64260836
H       -2.43311707       0.67328779      -0.65473579
C       -0.91132561       0.90220522       0.91563759
C       -0.01476271      -0.02253852       1.78660255
H       -0.67934791      -0.69751639       2.42135241
H        0.63392994       0.61504881       2.47327442
C        0.01484550      -1.77751727      -0.01636693
H        0.67870853      -2.42144646      -0.68295456
H       -0.62264859      -2.45592969       0.64226336
C        1.78714474       0.01002794       0.00389507
H        2.44202412       0.67113390       0.66197326
H        2.45385902      -0.65136977      -0.64189061
C        0.91606151      -0.90478549       0.90901405
