145
Properties=species:S:1:pos:R:3 pbc="F F F"
C        0.00000000       0.00000000       0.00000000
C        0.88117765       0.88117765      -0.88117765
C        0.72805351       2.26369898      -0.85479597
C        1.53460732       3.06479176      -1.66932442
C        2.49931465       2.49385835      -2.51715367
C        2.64121286       1.09841134      -2.52680955
C        1.83401400       0.29581751      -1.71089205
C        3.30670912       3.42475415      -3.36676642
O        3.11993760       4.63772201      -3.29033228
C        4.31851991       2.87115348      -4.30478373
C        4.97576289       3.69847420      -5.12960261
S        6.14962182       3.07792030      -6.24357799
C        5.95234500       4.25303440      -7.50010324
C        6.63305947       4.14411434      -8.64856581
C        6.43443811       5.17212585      -9.70123064
O        5.90669872       6.25218530      -9.46114185
C        6.93360951       4.87180042     -11.06802031
C        7.34371268       5.94438239     -11.87111443
C        7.80594100       5.71557164     -13.16911777
C        7.84556792       4.41474830     -13.66767767
C        7.42315215       3.34167454     -12.88316313
C        6.96317229       3.56872972     -11.58252023
H       -0.01286427       2.73015558      -0.21046152
H        1.40128168       4.14583759      -1.64026912
H        3.36485113       0.59079221      -3.15436661
H        1.95727505      -0.78458836      -1.73386561
H        4.51395040       1.81033622      -4.33034803
H        4.78494569       4.76951892      -5.10205632
H        5.25806083       5.07939038      -7.35962077
H        7.33345386       3.33848094      -8.82961823
H        7.30413605       6.96247516     -11.48651894
H        8.12487575       6.55640326     -13.77988084
H        7.43865221       2.32858050     -13.27790410
H        6.60902685       2.72177144     -11.00080221
C        8.31778791       4.17690455     -15.00709494
C        8.71327216       3.97771040     -16.12885691
Br       9.35273674       3.65563031     -17.94265113
C       -0.88117765      -0.88117765      -0.88117765
C       -1.90851764      -0.31150122      -1.62652960
C       -2.71603287      -1.12558719      -2.42710345
C       -2.50632001      -2.51392954      -2.49007712
C       -1.46316549      -3.06899202      -1.73427625
C       -0.65393487      -2.25400961      -0.93277908
C       -3.42826203      -3.31082313      -3.35914453
O       -4.31430537      -2.74063855      -3.99304799
C       -3.27065555      -4.78705099      -3.43675058
C       -4.15265979      -5.50842614      -4.14275377
S       -4.00115777      -7.23238333      -4.23757900
C       -5.67973924      -7.62556683      -4.40017656
C       -6.07979342      -8.90320001      -4.44274619
C       -7.52833886      -9.19777566      -4.58168007
O       -8.33141562      -8.34519437      -4.94341588
C       -7.98463174     -10.58429967      -4.30449883
C       -9.11115827     -11.05766836      -4.99038287
C       -9.58889946     -12.34853208      -4.75319887
C       -8.94688960     -13.16080730      -3.82029699
C       -7.83545694     -12.69340469      -3.11912818
C       -7.35409540     -11.40260245      -3.35772437
H       -2.09384181       0.75912521      -1.59303623
H       -3.51868147      -0.66576073      -3.00294618
H       -1.24371725      -4.13059357      -1.73569913
H        0.14865173      -2.70309368      -0.35211036
H       -2.45986927      -5.27571474      -2.91905064
H       -4.96805258      -5.01778353      -4.67068482
H       -6.41665692      -6.82639053      -4.45402453
H       -5.38058187      -9.72840463      -4.39256654
H       -9.61989062     -10.42072010      -5.71251943
H      -10.46134811     -12.70454689      -5.29526486
H       -7.34448521     -13.32124336      -2.37940824
H       -6.50667097     -11.04791030      -2.77701923
C       -9.44020128     -14.49051737      -3.57106875
C       -9.85334981     -15.60414956      -3.36234010
Br     -10.52137605     -17.40479861      -3.02484352
C       -0.88117765       0.88117765       0.88117765
C       -2.19259856       0.50308643       1.15086348
C       -2.99641916       1.31827126       1.95403309
C       -2.49948352       2.51711312       2.49373003
C       -1.17364124       2.87924593       2.21354658
C       -0.36816143       2.06291559       1.40964654
C       -3.43406871       3.33618110       3.32797988
O       -4.58070455       2.93953005       3.52775730
C       -2.96922220       4.62881670       3.89641822
C       -3.83377073       5.40385129       4.56621769
S       -3.32221184       6.92257867       5.22632960
C       -4.82756950       7.77021735       5.10769579
C       -4.91175605       9.06193571       5.45204785
C       -6.22080398       9.75253474       5.33445589
O       -7.27194018       9.13327999       5.21480569
C       -6.23174382      11.23657290       5.40511352
C       -7.37303367      11.86407301       5.92210281
C       -7.43848306      13.25736255       5.99478480
C       -6.36703390      14.02274666       5.53821333
C       -5.23349301      13.40900835       5.00548845
C       -5.16513465      12.01431780       4.93496978
H       -2.60225314      -0.41755723       0.74305693
H       -4.02242744       1.01080266       2.15415829
H       -0.72465644       3.78840766       2.59694585
H        0.65679207       2.36163213       1.20171224
H       -1.94712767       4.94676885       3.76073814
H       -4.86375928       5.08312929       4.70963237
H       -5.70933338       7.25124796       4.73649064
H       -4.05980657       9.61578251       5.82596395
H       -8.21516348      11.26773629       6.27023038
H       -8.32822306      13.73104712       6.40188968
H       -4.40436365      14.00658653       4.63418663
H       -4.28609157      11.55865361       4.48685532
C       -6.43402273      15.45947993       5.60828474
C       -6.49012587      16.66274405       5.66696955
Br      -6.58083991      18.60832035       5.76185791
C        0.88117765      -0.88117765       0.88117765
C        0.40930535      -2.11246172       1.32478139
C        1.21962636      -2.91212615       2.13697100
C        2.50616425      -2.49012760       2.51403481
C        2.96548808      -1.24733600       2.05360967
C        2.15448921      -0.44641197       1.23982238
C        3.29793477      -3.40138685       3.39890807
O        2.81900281      -4.47771286       3.75127622
C        4.65199136      -2.98902517       3.85344059
C        5.32192653      -3.76376523       4.71814794
S        6.89582036      -3.29934661       5.27595314
C        6.83271808      -4.02646734       6.84629722
C        7.84391901      -3.87094905       7.71087155
C        7.75018276      -4.50977493       9.04783691
O        6.93715528      -5.39533045       9.28754014
C        8.70713731      -4.07031674      10.09597619
C        9.08548565      -4.99870401      11.07501984
C        9.97023297      -4.62959916      12.09079828
C       10.46613216      -3.32787255      12.13398917
C       10.08236922      -2.39084783      11.17477276
C        9.19927682      -2.75965502      10.15549039
H       -0.58318091      -2.46072611       1.05020763
H        0.83550224      -3.87263154       2.47925460
H        3.94642526      -0.85968401       2.30390068
H        2.52729567       0.51523098       0.89448761
H        5.08748824      -2.06737375       3.49977267
H        4.88767118      -4.69673844       5.07211131
H        5.95668165      -4.60311400       7.13727633
H        8.73342738      -3.30582562       7.46230003
H        8.69123635      -6.01351946      11.04837434
H       10.25859749      -5.36098140      12.84158097
H       10.45645424      -1.37074141      11.21794116
H        8.88900007      -2.00484691       9.43775352
C       11.37513313      -2.94390904      13.18274523
C       12.13642143      -2.62233960      14.06107843
Br      13.36736024      -2.10238901      15.48126893
