137
Properties=species:S:1:pos:R:3 pbc="F F F"
C        0.00000000       0.00000000       0.00000000
C        0.88117765       0.88117765      -0.88117765
C        0.72805351       2.26369898      -0.85479597
C        1.53460732       3.06479176      -1.66932442
C        2.49931465       2.49385835      -2.51715367
C        2.64121286       1.09841134      -2.52680955
C        1.83401400       0.29581751      -1.71089205
C        3.30670912       3.42475415      -3.36676642
O        3.11993760       4.63772201      -3.29033228
C        4.31851991       2.87115348      -4.30478373
C        4.97576289       3.69847420      -5.12960261
S        6.14962182       3.07792030      -6.24357799
C        5.95234500       4.25303440      -7.50010324
C        6.63305947       4.14411434      -8.64856581
C        6.43443811       5.17212585      -9.70123064
O        5.90669872       6.25218530      -9.46114185
C        6.93360951       4.87180042     -11.06802031
C        7.34371268       5.94438239     -11.87111443
C        7.80594100       5.71557164     -13.16911777
C        7.84556792       4.41474830     -13.66767767
Br       8.46532636       4.10259363     -15.42557690
C        7.42315215       3.34167454     -12.88316313
C        6.96317229       3.56872972     -11.58252023
H       -0.01286427       2.73015558      -0.21046152
H        1.40128168       4.14583759      -1.64026912
H        3.36485113       0.59079221      -3.15436661
H        1.95727505      -0.78458836      -1.73386561
H        4.51395040       1.81033622      -4.33034803
H        4.78494569       4.76951892      -5.10205632
H        5.25806083       5.07939038      -7.35962077
H        7.33345386       3.33848094      -8.82961823
H        7.30413605       6.96247516     -11.48651894
H        8.12487575       6.55640326     -13.77988084
H        7.43865221       2.32858050     -13.27790410
H        6.60902685       2.72177144     -11.00080221
C       -0.88117765      -0.88117765      -0.88117765
C       -1.31542828      -0.41366958      -2.11745060
C       -2.12767618      -1.22392169      -2.91712564
C       -2.51412238      -2.50603286      -2.49017142
C       -2.06304479      -2.96102159      -1.24236738
C       -1.24920241      -2.15009346      -0.44142769
C       -3.39833858      -3.29795146      -3.40193965
O       -3.74216597      -2.82303037      -4.48279556
C       -3.86257012      -4.64720818      -2.98467881
C       -4.72669774      -5.31665390      -3.76048806
S       -5.29569422      -6.88488917      -3.29053672
C       -6.86166224      -6.81719369      -4.02662670
C       -7.73262929      -7.82277401      -3.87033632
C       -9.06554042      -7.72523723      -4.51701695
O       -9.29591144      -6.91579727      -5.40831716
C      -10.12132292      -8.67400444      -4.07810288
C      -11.09733676      -9.05209200      -5.00978075
C      -12.11997662      -9.92921868      -4.64143510
C      -12.17302395     -10.41769968      -3.33727026
Br     -13.55873489     -11.60035822      -2.83440378
C      -11.21685422     -10.03404157      -2.39709401
C      -10.19072127      -9.15858730      -2.76511366
H       -1.03349169       0.57536595      -2.46962710
H       -2.46257546      -0.84322314      -3.88158979
H       -2.32085144      -3.93842450      -0.85073402
H       -0.91119598      -2.51948513       0.52412881
H       -3.51635696      -5.07955419      -2.05872350
H       -5.07315119      -4.88561010      -4.69775965
H       -7.14465211      -5.94276521      -4.60965466
H       -7.49205681      -8.71050527      -3.29899095
H      -11.06296494      -8.66358762      -6.02657759
H      -12.86831966     -10.21749033      -5.37534986
H      -11.26766641     -10.40226267      -1.37520774
H       -9.47543068      -8.84809417      -2.00807564
C       -0.88117765       0.88117765       0.88117765
C       -2.21403364       0.54187278       1.09064205
C       -3.01743104       1.35706591       1.89422655
C       -2.49865416       2.51729276       2.49437974
C       -1.15157380       2.84050326       2.27435669
C       -0.34653297       2.02413131       1.47005928
C       -3.43364436       3.34003593       3.32454940
O       -4.60003192       2.97864854       3.46931144
C       -2.94466557       4.59409506       3.95569649
C       -3.80526506       5.37609038       4.62248426
S       -3.26502621       6.85102681       5.35506708
C       -4.73433425       7.75659645       5.21455193
C       -4.78555209       9.03762075       5.60256677
C       -6.06436046       9.77916296       5.46427118
O       -7.13155759       9.20320653       5.28526174
C       -6.02569292      11.25921275       5.58852457
C       -7.16229742      11.90931753       6.08759455
C       -7.18133332      13.30064996       6.20864712
C       -6.06771782      14.04206393       5.81821215
Br      -6.09258992      15.92523652       5.97567045
C       -4.93779526      13.40653878       5.30365577
C       -4.91598218      12.01362510       5.18481495
H       -2.64066743      -0.34832901       0.63541442
H       -4.06022341       1.08033932       2.04682566
H       -0.68517457       3.71866283       2.70617255
H        0.69518284       2.29243001       1.30930513
H       -1.90776147       4.87916895       3.86770424
H       -4.85043224       5.08826592       4.71782277
H       -5.61968558       7.28346849       4.79391790
H       -3.92884967       9.54657239       6.02613098
H       -8.03699405      11.33219099       6.38394511
H       -8.06811393      13.79183396       6.60121197
H       -4.07519441      13.98619350       4.98374890
H       -4.03775713      11.54226971       4.75157366
C        0.88117765      -0.88117765       0.88117765
C        0.31315045      -1.61743886       1.91595915
C        1.12727554      -2.41805037       2.72339760
C        2.51402132      -2.49012100       2.50618435
C        3.06740413      -1.74341753       1.45561209
C        2.25237809      -0.94188735       0.64645812
C        3.31121852      -3.35847760       3.42853358
O        2.74250951      -3.98409156       4.32139082
C        4.78606099      -3.44538568       3.26301046
C        5.50843850      -4.15047928       4.14492193
S        7.23093951      -4.25598298       3.98419762
C        7.63275369      -4.41130524       5.66142371
C        8.91238394      -4.45888688       6.05446879
C        9.21441677      -4.59128769       7.50209013
O        8.36438946      -4.94360377       8.31203264
C       10.60506642      -4.31943061       7.94893321
C       11.08095276      -5.00160717       9.07664956
C       12.37584081      -4.76907944       9.54571015
C       13.18971721      -3.84447351       8.89380318
Br      14.94036238      -3.52366373       9.52947078
C       12.71996935      -3.14696116       7.78105930
C       11.42511415      -3.38092189       7.30838619
H       -0.75619566      -1.57679612       2.10715238
H        0.66877486      -2.98670682       3.53190671
H        4.12771292      -1.75213274       1.23016429
H        2.70016442      -0.36834351      -0.16195563
H        5.27302223      -2.93508057       2.44653185
H        5.01946673      -4.67097779       4.96607641
H        6.83749707      -4.45642257       6.40315234
H        9.73386210      -4.41737244       5.35031850
H       10.44283240      -5.71720873       9.59308902
H       12.73374416      -5.30821345      10.41920225
H       13.34918124      -2.41362426       7.28233131
H       11.06889493      -2.80301574       6.45968983
