157
Properties=species:S:1:pos:R:3 pbc="F F F"
C        0.00000000       0.00000000       0.00000000
C        0.88199662       0.88199662      -0.88199662
C        0.67176712       0.90863448      -2.26172280
C        1.48060336       1.70897873      -3.07076175
C        2.49739984       2.47142697      -2.48684994
C        2.70077386       2.45621726      -1.10196720
C        1.88944861       1.65280836      -0.29874167
S        3.53920887       3.48880774      -3.52166542
O        2.75334444       3.82352070      -4.69271930
O        4.07860111       4.52659302      -2.66394464
N        4.71107903       2.46772316      -3.91760485
C        5.65365971       2.80985218      -4.70781114
S        5.95074815       4.35553138      -5.47878706
C        7.24235557       3.70882007      -6.57307602
C        7.83004181       2.53494267      -5.80902515
N        6.69124799       1.92959702      -5.08737669
S        6.93470832       0.40234992      -4.42291374
O        5.68549453      -0.16237228      -3.96482643
O        7.78877104      -0.34267152      -5.32712777
C        7.90862422       0.78746350      -2.98021218
C        9.30492435       0.72081736      -3.04891969
C       10.06452178       1.01841757      -1.91636511
C        9.42504886       1.36317653      -0.72477896
C        8.03155624       1.40637235      -0.65038062
C        7.26641144       1.11202569      -1.78084020
H       -0.11461029       0.30991480      -2.71477764
H        1.31813752       1.72714620      -4.14626202
H        3.48312740       3.05854280      -0.64627384
H        2.04856892       1.63375799       0.77656040
H        6.77384991       3.37245638      -7.50350403
H        7.99369254       4.46760780      -6.80669025
H        8.30153771       1.83833066      -6.50759139
H        8.58124193       2.88362863      -5.09142398
H        9.80702353       0.43588472      -3.97108370
H       11.14979982       0.97175197      -1.96921529
H        7.53530677       1.66098397       0.28321623
H        6.18030982       1.13083103      -1.71660046
C       10.21199745       1.67053611       0.44134367
C       10.87106690       1.92794976       1.41797138
Br      11.93672645       2.34416586       2.99709578
C       -0.88199662      -0.88199662      -0.88199662
C       -2.26179556      -0.90814524      -0.67218360
C       -3.06938350      -1.71824686      -1.47271349
C       -2.48269485      -2.49936817      -2.47361373
C       -1.10080936      -2.46400325      -2.69414571
C       -0.29872661      -1.65290966      -1.88936237
S       -3.51352817      -3.54352718      -3.49262668
O       -4.82582651      -2.92843310      -3.51532483
O       -2.77603951      -3.77280414      -4.72029511
N       -3.55573498      -4.90113933      -2.63953274
C       -4.24756467      -5.90480777      -3.01895058
S       -5.21913066      -6.10160674      -4.46432918
C       -5.98839187      -7.64056455      -3.89529524
C       -4.95863744      -8.25342704      -2.96194515
N       -4.31725348      -7.10833784      -2.28263038
S       -3.37429296      -7.45386477      -0.93181424
O       -3.01271820      -6.24013798      -0.23509250
O       -4.00497247      -8.54824302      -0.22001180
C       -1.89252789      -8.10166336      -1.68210866
C       -1.74576397      -9.48396804      -1.84492939
C       -0.58245684      -9.98836560      -2.42848201
C        0.42757186      -9.11223042      -2.82834579
C        0.29075434      -7.73509218      -2.64397137
C       -0.87186884      -7.22445943      -2.06294906
H       -2.71541967      -0.30559742       0.11093495
H       -4.14429417      -1.74037912      -1.30687245
H       -0.64581070      -3.06165719      -3.48047614
H        0.77565629      -1.62767828      -2.05374452
H       -6.90589838      -7.39109230      -3.35281964
H       -6.23638319      -8.30267261      -4.72893478
H       -5.45256892      -8.93289407      -2.26199677
H       -4.20969244      -8.81288655      -3.53371556
H       -2.52328980     -10.17166371      -1.51903844
H       -0.46871963     -11.06192718      -2.56012027
H        1.08543396      -7.05554636      -2.94296211
H       -0.96988068      -6.15219407      -1.90566656
C        1.62589982      -9.63615667      -3.43093304
C        2.62949948     -10.07494491      -3.93559986
Br       4.25223526     -10.78442837      -4.75160342
C       -0.88199662       0.88199662       0.88199662
C       -1.67748188       0.29635254       1.86828997
C       -2.48928500       1.09959363       2.67146522
C       -2.49885435       2.48400753       2.47281487
C       -1.69158247       3.07413148       1.49324437
C       -0.88314572       2.26526125       0.69259168
S       -3.54402941       3.51224510       3.49340752
O       -3.71985462       2.80396275       4.74576707
O       -2.96435012       4.84141665       3.46337200
N       -4.91703620       3.51512286       2.66424799
C       -5.95567635       4.11760948       3.09803719
S       -6.16014223       5.06958863       4.55533572
C       -7.96277902       5.16522275       4.39624989
C       -8.21511494       5.05651429       2.90238040
N       -7.18319739       4.12600797       2.39901634
S       -7.39710754       3.51929205       0.84357239
O       -6.45957605       2.45211444       0.57625820
O       -8.81801954       3.31576783       0.63943992
C       -6.91861438       4.91489183      -0.15720631
C       -7.89656849       5.80113215      -0.62303925
C       -7.51929162       6.89026011      -1.41024728
C       -6.17534907       7.07535023      -1.73769495
C       -5.20315139       6.17765627      -1.29249846
C       -5.57430450       5.08755973      -0.50258690
H       -1.67409548      -0.78071556       2.01670222
H       -3.11114978       0.64235309       3.43804288
H       -1.68934865       4.15168065       1.34691473
H       -0.25953254       2.71957887      -0.07334490
H       -8.40456242       4.31676165       4.92848625
H       -8.35846168       6.09385749       4.81567141
H       -9.23059460       4.69202614       2.72483902
H       -8.09842281       6.03495029       2.42292144
H       -8.94737322       5.65101443      -0.38439571
H       -8.27732140       7.58261965      -1.76917397
H       -4.15845490       6.31583595      -1.56121634
H       -4.81724903       4.38029720      -0.16980492
C       -5.78972602       8.20066997      -2.54920610
C       -5.46676672       9.14312525      -3.22884669
Br      -4.94456883      10.66699573      -4.32776803
C        0.88199662      -0.88199662       0.88199662
C        1.92168853      -1.61418809       0.30624777
C        2.72521027      -2.42598028       1.10915330
C        2.47343315      -2.49926613       2.48297747
C        1.43980247      -1.75522647       3.06392938
C        0.63915437      -0.94646953       2.25537474
S        3.49472306      -3.54471176       3.51024721
O        4.77976126      -3.64291312       2.84691007
O        3.38960430      -3.02088656       4.85864791
N        2.72230439      -4.94791011       3.42619254
C        3.17400442      -5.99242220       4.00489641
S        4.60026540      -6.17841861       5.00638257
C        4.51063948      -7.98826978       5.02534240
C        3.03355866      -8.29389283       4.84655814
N        2.52541897      -7.24552749       3.93727525
S        1.00466898      -7.49503193       3.26027107
O        0.74133962      -6.52619700       2.22041206
O        0.86625576      -8.91340838       2.99356314
C       -0.06815279      -7.11266399       4.63178871
C       -0.52814525      -8.14304306       5.45976358
C       -1.37172219      -7.84102954       6.52999711
C       -1.76022104      -6.51942368       6.75380171
C       -1.32015432      -5.49513096       5.91333257
C       -0.47408818      -5.79088606       4.84247945
H        2.11160705      -1.56146272      -0.76298763
H        3.53351624      -2.99856217       0.65946734
H        1.25171721      -1.80227896       4.13394787
H       -0.16846861      -0.37199882       2.70223630
H        5.09289885      -8.37433810       4.18257337
H        4.90930208      -8.40459061       5.95409788
H        2.91155082      -9.29992983       4.43597911
H        2.51209195      -8.23560988       5.80859271
H       -0.24152958      -9.17684053       5.27868100
H       -1.72633589      -8.63983052       7.17727245
H       -1.63608567      -4.46811845       6.08104173
H       -0.14495916      -4.99347145       4.17922901
C       -2.62980763      -6.21148623       7.85951130
C       -3.35808640      -5.95358861       8.78554307
Br      -4.53565157      -5.53658997      10.28285814
