170
Properties=species:S:1:pos:R:3 pbc="F F F"
C        1.79132255       1.79132255      -1.79132255
C        1.65753133       1.73592310      -3.17679872
C        2.46460676       2.54237676      -3.98218634
C        3.39942034       3.40795998      -3.40527187
C        3.53432184       3.44716677      -2.01376797
C        2.72675365       2.64209775      -1.20552599
S        4.39789931       4.42573413      -4.47495262
C        3.92909069       6.08112481      -3.88463491
C        2.46207936       6.30989468      -4.01227675
N        1.72410607       6.26659971      -5.08968800
N        0.42784914       6.61070627      -4.71667623
C        0.26261042       6.94137178      -3.38871357
O       -0.69771628       7.35119275      -2.77715720
C        1.63874488       6.71713041      -2.84045687
N        2.10108089       6.83413451      -1.63902093
N        1.22774509       7.24395256      -0.68423153
C        1.73069432       7.49214877       0.60524500
C        1.07249447       8.39030241       1.45525791
C        1.56712306       8.65684369       2.73684753
C        2.71819886       8.01119192       3.18262131
C        3.38032965       7.10601600       2.35944299
C        2.88823050       6.85474155       1.07635979
H        0.93367186       1.07062018      -3.64004505
H        2.35379149       2.49294406      -5.06364340
H        4.26857650       4.09545794      -1.54183032
H        2.83742550       2.68456835      -0.12492994
H        4.44304610       6.82473546      -4.50175031
H        4.27047503       6.21695518      -2.85541673
H       -0.30702797       6.66169229      -5.41440070
H        0.35808579       7.72560504      -0.93349866
H        0.17473914       8.90452504       1.12141025
H        1.04863563       9.36773040       3.37436858
H        4.27385369       6.59068651       2.69978992
H        3.40695876       6.14148416       0.44145915
C        3.22690535       8.28042072       4.50259615
C        3.65294703       8.50589983       5.60807507
Br       4.34182039       8.87048049       7.39554100
C       -1.79132255      -1.79132255      -1.79132255
C       -1.74328585      -1.65058228      -3.17638502
C       -2.55029596      -2.45713252      -3.98174138
C       -3.39928932      -3.40760383      -3.40575906
C       -3.44898174      -3.53260886      -2.01366600
C       -2.64123361      -2.72756923      -1.20557454
S       -4.40091244      -4.42132632      -4.47634729
C       -3.80593831      -6.07643979      -4.01247230
C       -2.33858011      -6.21025507      -4.23541561
N       -1.66941896      -6.06298201      -5.34799281
N       -0.33608113      -6.34991781      -5.06923271
C       -0.07408233      -6.74404298      -3.77457046
O        0.94227910      -7.12976483      -3.24314794
C       -1.42565619      -6.63290356      -3.13777240
N       -1.80861235      -6.84423074      -1.92139323
N       -0.85858652      -7.25433238      -1.04301028
C       -1.26944989      -7.60375434       0.25560614
C       -0.51271265      -8.50746092       1.01263461
C       -0.91472376      -8.87423143       2.30183597
C       -2.07166914      -8.32399379       2.84889345
C       -2.83112524      -7.41502432       2.11924690
C       -2.43086882      -7.06353618       0.82779276
H       -1.08658315      -0.91860581      -3.63914813
H       -2.50678575      -2.34072754      -5.06286567
H       -4.11648194      -4.24873379      -1.54064903
H       -2.68504184      -2.83697861      -0.12490334
H       -4.31315387      -6.81350781      -4.64287019
H       -4.07751016      -6.28970965      -2.97562713
H        0.35780234      -6.31805772      -5.80880964
H        0.02035610      -7.66881953      -1.36872606
H        0.39103776      -8.94800605       0.59911437
H       -0.32032820      -9.58768551       2.86601626
H       -3.73033483      -6.97348892       2.53907347
H       -3.02548169      -6.34788036       0.26637827
C       -2.48528314      -8.69642773       4.17698095
C       -2.83168486      -9.00834116       5.28925424
Br      -3.39178716      -9.51267879       7.08770606
C       -1.79132255       1.79132255       1.79132255
C       -1.24002660       2.43105588       2.89917067
C       -2.04731660       3.23682674       3.70502652
C       -3.40165254       3.40925901       3.40174065
C       -3.94812579       2.75290052       2.29423028
C       -3.14192402       1.94709923       1.48535412
S       -4.38784709       4.45699744       4.45374152
C       -4.94560780       5.70032780       3.24891481
C       -3.79255332       6.38875629       2.60294119
N       -2.83587678       7.07552195       3.16899504
N       -2.02839963       7.57556381       2.15126821
C       -2.44183301       7.28121957       0.86964320
O       -2.01600531       7.62438009      -0.20975173
C       -3.64703221       6.42764000       1.12165995
N       -4.44561804       5.82681020       0.30180808
N       -4.19480365       5.98396244      -1.02283691
C       -5.11467816       5.43919374      -1.93627381
C       -5.23934149       5.98752336      -3.21932589
C       -6.15848253       5.46419371      -4.13555702
C       -6.94919892       4.37474949      -3.77717894
C       -6.83255498       3.80688804      -2.51254036
C       -5.92219085       4.34287044      -1.59844904
H       -0.18868569       2.30935807       3.14629333
H       -1.60879325       3.73293485       4.56865087
H       -5.00278958       2.85327452       2.04980066
H       -3.57682505       1.44563817       0.62446056
H       -5.53579298       6.45360406       3.78013483
H       -5.60078656       5.23160614       2.51045424
H       -1.23172640       8.16290866       2.37442997
H       -3.62069313       6.76113589      -1.36463954
H       -4.63174159       6.83964381      -3.51353147
H       -6.24867677       5.91389391      -5.12057323
H       -7.43805795       2.95208068      -2.22538835
H       -5.83187512       3.88990267      -0.61479402
C       -7.89278706       3.83155601      -4.71961316
C       -8.68304213       3.37663147      -5.50890182
Br      -9.96081774       2.64105696      -6.78511482
C        1.79132255      -1.79132255       1.79132255
C        1.22234734      -2.50262294       2.84528287
C        2.02963083      -3.30833288       3.65120616
C        3.40198726      -3.40924848       3.40141645
C        3.96539476      -2.68157498       2.34828685
C        3.15932474      -1.87565392       1.53939872
S        4.38811712      -4.45979830       4.45067064
C        5.05146912      -5.62339452       3.21998677
C        3.95875628      -6.33088990       2.49460461
N        3.01034317      -7.08229323       2.98775737
N        2.27000481      -7.57049611       1.91473072
C        2.72415124      -7.20206889       0.66647564
O        2.36038357      -7.51468634      -0.44443624
C        3.87834303      -6.30998436       1.00800477
N        4.68360125      -5.63979462       0.25084045
N        4.49668488      -5.74838844      -1.08914414
C        5.42948267      -5.12482218      -1.93670676
C        5.63296581      -5.60970626      -3.23513311
C        6.56610457      -5.00744522      -4.08643058
C        7.29157427      -3.90233349      -3.64713827
C        7.09601054      -3.39679368      -2.36590157
C        6.17228621      -4.01121432      -1.51688828
H        0.15706058      -2.43693896       3.05033755
H        1.57722666      -3.86060927       4.47254303
H        5.03293449      -2.72595394       2.14697633
H        3.60775894      -1.31831056       0.72085429
H        5.65142343      -6.37373719       3.74437125
H        5.71600401      -5.09479281       2.53205013
H        1.49147396      -8.20059335       2.07699771
H        3.97280807      -6.53333285      -1.48895143
H        5.07697065      -6.47299992      -3.59211664
H        6.71809920      -5.40861764      -5.08471939
H        7.65009367      -2.53059367      -2.01593706
H        6.02008291      -3.60672515      -0.51982429
C        8.24934601      -3.27803893      -4.52265503
C        9.05147985      -2.75519225      -5.25590031
Br      10.34846243      -1.90979338      -6.44149592
C       -0.00445707       0.01189536      -1.78238275
H       -0.66409135       0.67374010      -2.43557963
H        0.65740317      -0.63156657      -2.45157240
C       -0.90989263      -0.90692880      -0.91072765
C        0.90977584       0.90977584      -0.90977584
C       -0.00465871       1.77757030       0.00794375
H       -0.66225468       2.44313916      -0.64384735
H        0.64322798       2.43503045       0.67728295
C       -1.78241447       0.00034974      -0.00472694
H       -2.45427497      -0.65498947       0.64260836
H       -2.43311707       0.67328779      -0.65473579
C       -0.91132561       0.90220522       0.91563759
C       -0.01476271      -0.02253852       1.78660255
H       -0.67934791      -0.69751639       2.42135241
H        0.63392994       0.61504881       2.47327442
C        0.01484550      -1.77751727      -0.01636693
H        0.67870853      -2.42144646      -0.68295456
H       -0.62264859      -2.45592969       0.64226336
C        1.78714474       0.01002794       0.00389507
H        2.44202412       0.67113390       0.66197326
H        2.45385902      -0.65136977      -0.64189061
C        0.91606151      -0.90478549       0.90901405
