149
Properties=species:S:1:pos:R:3 pbc="F F F"
C        0.00000000       0.00000000       0.00000000
C        0.88141852       0.88141852      -0.88141852
C        0.74762730       0.82601908      -2.26689469
C        1.55470274       1.63247273      -3.07228232
C        2.48951632       2.49805596      -2.49536785
C        2.62441782       2.53726275      -1.10386395
C        1.81684962       1.73219372      -0.29562196
S        3.48799528       3.51583011      -3.56504859
C        3.01918667       5.17122078      -2.97473089
C        1.55217533       5.39999066      -3.10237273
N        0.81420204       5.35669568      -4.17978398
N       -0.48205488       5.70080224      -3.80677221
C       -0.64729360       6.03146776      -2.47880954
O       -1.60762031       6.44128872      -1.86725318
C        0.72884086       5.80722638      -1.93055285
N        1.19117686       5.92423049      -0.72911690
N        0.31784106       6.33404854       0.22567249
C        0.82079029       6.58224474       1.51514903
C        0.16259044       7.48039838       2.36516193
C        0.65721904       7.74693967       3.64675156
C        1.80829484       7.10128790       4.09252533
C        2.47042562       6.19611198       3.26934701
C        1.97832647       5.94483752       1.98626382
H        0.02376783       0.16071616      -2.73014103
H        1.44388747       1.58304004      -4.15373938
H        3.35867247       3.18555392      -0.63192629
H        1.92752147       1.77466433       0.78497408
H        3.53314208       5.91483144      -3.59184628
H        3.36057100       5.30705115      -1.94551271
H       -1.21693200       5.75178827      -4.50449667
H       -0.55181824       6.81570101      -0.02359464
H       -0.73516488       7.99462102       2.03131427
H        0.13873160       8.45782637       4.28427260
H        3.36394967       5.68078249       3.60969395
H        2.49705473       5.23158014       1.35136317
C        2.31700132       7.37051669       5.41250017
C        2.74304300       7.59599581       6.51797910
Br       3.43191636       7.96057647       8.30544502
C       -0.88141852      -0.88141852      -0.88141852
C       -1.01852302      -2.23586767      -0.58615038
C       -1.82477062      -3.04135011      -1.39333706
C       -2.49867714      -2.49431862      -2.48994437
C       -2.34472276      -1.13589881      -2.78492295
C       -1.53953137      -0.32738459      -1.97774935
S       -3.52524510      -3.56078219      -3.48284670
C       -5.13413723      -2.73249516      -3.29850595
C       -5.54140787      -2.64546623      -1.86766461
N       -5.71936338      -3.61797163      -1.01334669
N       -6.15720095      -3.04634546       0.17802684
C       -6.33242411      -1.67938801       0.14882842
O       -6.76669739      -0.90810122       0.97387702
C       -5.88626020      -1.33984815      -1.24051174
N       -5.79623857      -0.20167645      -1.84660923
N       -6.17694189       0.89674424      -1.14601946
C       -6.20039159       2.13130132      -1.81879575
C       -7.05137549       3.15416850      -1.38061989
C       -7.09484683       4.38408485      -2.04664517
C       -6.27188803       4.60376270      -3.14893208
C       -5.41012032       3.60604476      -3.59311503
C       -5.38159783       2.37605729      -2.93135964
H       -0.50367574      -2.67517480       0.26422553
H       -1.92641085      -4.09847360      -1.15578244
H       -2.84052560      -0.69127221      -3.64435487
H       -1.43115663       0.72812297      -2.21417806
H       -5.88754413      -3.32218499      -3.83009068
H       -5.09826914      -1.74648556      -3.76838016
H       -6.37931611      -3.63446087       0.97442404
H       -6.78148705       0.81632503      -0.32231539
H       -7.70196711       2.99766066      -0.52383541
H       -7.77261391       5.15861884      -1.69829030
H       -4.75808715       3.76937140      -4.44632245
H       -4.70113350       1.60380720      -3.27994539
C       -6.31152612       5.87001282      -3.83350454
C       -6.34472303       6.93049729      -4.40683398
Br      -6.39839961       8.64521100      -5.33385919
C       -0.88141852       0.88141852       0.88141852
C       -2.00015795       1.50582318       0.33455994
C       -2.80556643       2.31222370       1.14166766
C       -2.49858462       2.48985770       2.49449780
C       -1.36634584       1.86830252       3.03089615
C       -0.55952765       1.05960481       2.22553285
S       -3.56381271       3.51897987       3.48608140
C       -4.09246010       2.32258091       4.75009732
C       -4.77141556       1.14627527       4.13684789
N       -5.83974399       1.12612872       3.38480899
N       -6.12522152      -0.20798769       3.10828575
C       -5.28780034      -1.12751411       3.70269747
O       -5.31164817      -2.33708155       3.72635497
C       -4.30404109      -0.24183554       4.40441454
N       -3.26102460      -0.52857858       5.11207823
N       -2.98379074      -1.84557564       5.28800201
C       -1.92540828      -2.18634480       6.14882253
C       -1.91601469      -3.43058995       6.79240214
C       -0.87598109      -3.77967730       7.66110336
C        0.17267054      -2.88883718       7.87856512
C        0.18953536      -1.65308276       7.23980870
C       -0.85876361      -1.30598713       6.38412370
H       -2.25359582       1.37523721      -0.71420802
H       -3.67762659       2.79645906       0.70658124
H       -1.09395482       2.00803001       4.07416786
H        0.31538756       0.57787812       2.65472115
H       -4.80704130       2.81779065       5.41498785
H       -3.23441078       2.02217107       5.35655301
H       -6.93822298      -0.45079613       2.55192609
H       -3.70306820      -2.56178948       5.14619869
H       -2.72835038      -4.13583986       6.63563133
H       -0.89590483      -4.74435154       8.16073209
H        1.00630212      -0.95421072       7.39555105
H       -0.83545241      -0.34172865       5.88354794
C        1.24635217      -3.24731018       8.76868020
C        2.14556054      -3.54753133       9.51415158
Br       3.59950441      -4.03296352      10.71951575
C        0.88141852      -0.88141852       0.88141852
C        0.29582686      -1.70146037       1.84325384
C        1.10308889      -2.50708152       2.64928738
C        2.49263430      -2.49927005       2.49103577
C        3.07147190      -1.66335814       1.53071447
C        2.26559845      -0.85723714       0.72182972
S        3.47915177      -3.55398081       3.53574140
C        4.30290285      -4.58131892       2.28091657
C        3.31321998      -5.30634376       1.43497498
N        2.38982559      -6.15169800       1.80915811
N        1.75830940      -6.61061819       0.65659198
C        2.26667856      -6.12568483      -0.52937968
O        2.00005388      -6.38230586      -1.68143815
C        3.32984048      -5.18573880      -0.04895919
N        4.13392141      -4.41200122      -0.70139837
N        4.04401558      -4.43768495      -2.05548343
C        4.98430186      -3.69554160      -2.79195745
C        5.30682601      -4.07291795      -4.10191707
C        6.24920452      -3.35169336      -4.84349073
C        6.86413963      -2.23493230      -4.28201453
C        6.54917210      -1.83525897      -2.98724048
C        5.61717436      -2.56780318      -2.24807736
H       -0.78264475      -1.72090484       1.97636493
H        0.63763445      -3.14470291       3.39832952
H        4.15043246      -1.62282455       1.40289568
H        2.72655895      -0.21503204      -0.02437927
H        4.91847852      -5.32561344       2.79572784
H        4.97236099      -3.96268951       1.67808436
H        1.01726677      -7.30062643       0.72145975
H        3.60448501      -5.22526396      -2.54227156
H        4.83804024      -4.94362677      -4.55352515
H        6.49475006      -3.67036984      -5.85283453
H        7.01631266      -0.96128738      -2.54256183
H        5.37126748      -2.24575267      -1.23974844
C        7.83107659      -1.48843906      -5.04449781
C        8.64088630      -0.86325098      -5.68307756
Br       9.95028010       0.14762529      -6.71560700
