181
Properties=species:S:1:pos:R:3 pbc="F F F"
C        0.00000000       0.00000000       0.00000000
C        0.88212215       0.88212215      -0.88212215
C        0.55565959       2.22527959      -1.06364024
C        1.37040243       3.03844623      -1.85926990
C        2.51559253       2.51356107      -2.47490971
C        2.81466589       1.15370343      -2.29606340
C        2.00606941       0.33966765      -1.49834299
C        3.41610233       3.33515346      -3.27523033
C        3.60743573       4.68854676      -3.09391098
S        4.83532541       5.24752859      -4.14526331
C        5.02994426       3.66288973      -4.77880704
N        4.20420990       2.76758421      -4.25889705
N        5.95593321       3.41381165      -5.77680215
N        5.90454804       2.22072733      -6.47338680
C        6.87912243       2.27855657      -7.33842668
C        7.14396243       1.17766247      -8.31306169
C        7.74835826       3.50733181      -7.24380994
H        8.74071376       3.20895876      -6.88539438
N        7.73854341       4.25049852      -8.49938276
N        8.72182877       3.69522140      -9.43729722
C        8.81184525       4.34687257     -10.61873496
C        9.49701461       3.72027358     -11.66693064
C        9.65331421       4.32338529     -12.92188897
C        9.12823101       5.59531161     -13.17470189
C        9.32032623       6.21732455     -14.52343941
C        8.44742469       6.24288597     -12.13190876
C        8.29650357       5.62532416     -10.88442717
C        7.04885948       4.24321701      -6.11279462
O        7.42868547       5.26107881      -5.53908046
H       -0.32698912       2.65024429      -0.59466644
H        1.09291363       4.07961305      -2.00002500
H        3.69482968       0.72719947      -2.77864326
H        2.26924563      -0.70606304      -1.37063831
H        3.13633579       5.36388176      -2.39748690
H        6.85596954       1.49464327      -9.31834467
H        6.55921422       0.29258646      -8.04763113
H        8.20513713       0.91727149      -8.29846071
H        9.91120369       2.73186170     -11.48524171
H       10.19194617       3.77670237     -13.68739431
H        9.83258280       5.53415098     -15.21023006
H        9.93266668       7.12089576     -14.44400844
H        8.35509052       6.46426555     -14.97642739
H        7.77270101       6.13348396     -10.07705438
C        7.88834209       7.55907593     -12.30123281
C        7.42011041       8.66138502     -12.44304169
Br       6.66301938      10.44372559     -12.67233467
C       -0.88212215      -0.88212215      -0.88212215
C       -2.08623308      -0.38233416      -1.37601217
C       -2.88851600      -1.18351013      -2.19609243
C       -2.49004656      -2.48628102      -2.52773573
C       -1.28419290      -2.97732474      -2.00291508
C       -0.47801761      -2.17852658      -1.18753586
C       -3.27317934      -3.33884982      -3.41445696
C       -4.10050826      -2.87442900      -4.41495622
S       -4.73114423      -4.19163760      -5.30533547
C       -3.87415057      -5.29328692      -4.30420354
N       -3.17793513      -4.71572401      -3.33703202
N       -3.97683662      -6.65775986      -4.51195053
N       -3.52632232      -7.53200936      -3.54033049
C       -3.76062759      -8.72656615      -4.00891194
C       -3.43868798      -9.96239510      -3.23360352
C       -4.32502879      -8.76764082      -5.40683039
H       -3.56780018      -9.18801981      -6.07924691
N       -5.61807681      -9.44326868      -5.42707919
N       -5.44082567     -10.89777419      -5.51574752
C       -6.58987009     -11.60780551      -5.57977718
C       -6.52303816     -12.99074046      -5.37044021
C       -7.65803504     -13.81005006      -5.43050337
C       -8.91695108     -13.26874918      -5.71254424
C      -10.10957080     -14.17212200      -5.77939739
C       -9.00100162     -11.88549438      -5.93572342
C       -7.85801256     -11.07961322      -5.86862913
C       -4.42813260      -7.27936202      -5.69737649
O       -4.71443484      -6.74727820      -6.76713169
H       -2.41165964       0.62439168      -1.13065364
H       -3.82994000      -0.78168906      -2.56092262
H       -0.96649020      -3.99311239      -2.24106982
H        0.45436022      -2.58300035      -0.80518077
H       -4.34098149      -1.86126147      -4.69546149
H       -4.36098153     -10.42894178      -2.87903418
H       -2.82139805      -9.71144987      -2.36658389
H       -2.89011521     -10.66434300      -3.86641112
H       -5.55145206     -13.42590335      -5.15095169
H       -7.53104701     -14.87184365      -5.25315219
H       -9.84412744     -15.20509117      -5.52774521
H      -10.52757902     -14.17919437      -6.79079748
H      -10.87591057     -13.85433164      -5.06554125
H       -7.92700074     -10.00837075      -6.04786786
C      -10.25433275     -11.24805645      -6.24626162
C      -11.30399757     -10.71420219      -6.50633736
Br     -13.00121681      -9.85100500      -6.92685783
C       -0.88212215       0.88212215       0.88212215
C       -0.51093297       2.20268961       1.13095684
C       -1.32495766       3.01660808       1.92655281
C       -2.51401206       2.51515924       2.47489200
C       -2.85861967       1.17669595       2.22911710
C       -2.05068024       0.36224250       1.43115730
C       -3.41352740       3.34080587       3.27215285
C       -3.54409727       4.70694655       3.13884965
S       -4.79100683       5.27392110       4.16318938
C       -5.07328996       3.67492569       4.72342539
N       -4.26276251       2.76774220       4.20018645
N       -6.04828417       3.42490753       5.67335531
N       -6.07217950       2.20432939       6.32215328
C       -7.07822404       2.26792169       7.14995995
C       -7.42556978       1.14138934       8.06772747
C       -7.89403360       3.53390744       7.07155898
H       -8.88187085       3.29055777       6.66263828
N       -7.90633452       4.22625974       8.35583042
N       -8.94808582       3.67522659       9.23103497
C       -9.06062070       4.28319009      10.43364199
C       -9.81202990       3.64446099      11.42772794
C       -9.99564470       4.20378527      12.69915850
C       -9.43185491       5.44233580      13.02405379
C       -9.65429373       6.01831521      14.38848124
C       -8.68419991       6.10197291      12.03604661
C       -8.50682656       5.52814804      10.77128031
C       -7.12065398       4.28440975       5.99980739
O       -7.43655642       5.33863152       5.45365680
H        0.40609861       2.60934151       0.71467870
H       -1.01283955       4.03926529       2.12044684
H       -3.77378586       0.76787245       2.65901410
H       -2.34922017      -0.66606692       1.25066765
H       -3.01885825       5.38927814       2.48956806
H       -7.16663312       1.40669958       9.09562479
H       -6.86562562       0.24427611       7.78953008
H       -8.49465663       0.92529031       8.00092239
H      -10.25689072       2.68165714      11.18975923
H      -10.58608282       3.64994709      13.42001293
H      -10.22053763       5.33021472      15.02621148
H      -10.22698842       6.94853978      14.32204267
H       -8.69940826       6.20771430      14.88866088
H       -7.93099588       6.04577131      10.00647216
C       -8.08132305       7.38660185      12.28072592
C       -7.57641368       8.46247859      12.48564485
Br      -6.76001793      10.20208028      12.81698143
C        0.88212215      -0.88212215       0.88212215
C        2.05807287      -0.36387126       1.42263528
C        2.85984361      -1.16554285       2.24273209
C        2.48892242      -2.48733167       2.52780922
C        1.31182383      -2.99603209       1.95657680
C        0.50610258      -2.19697250       1.14100497
C        3.27118367      -3.34272812       3.41257433
C        4.05791596      -2.88409383       4.44788369
S        4.70061389      -4.20800699       5.31949642
C        3.90197220      -5.30417504       4.26549380
N        3.21638455      -4.71898985       3.29531676
N        4.03689601      -6.67061925       4.43903174
N        3.63730746      -7.52938426       3.43197045
C        3.89197224      -8.72973163       3.87440182
C        3.62560404      -9.95178392       3.05729863
C        4.41927845      -8.79437315       5.28584841
H        3.65611872      -9.25361217       5.92533601
N        5.72958910      -9.43507995       5.32375563
N        5.59051039     -10.89575041       5.36808658
C        6.75669807     -11.57594710       5.44480761
C        6.73402642     -12.95382915       5.19636326
C        7.88932252     -13.74349157       5.26577438
C        9.12461328     -13.17638690       5.59724433
C       10.33964227     -14.04867940       5.67276851
C        9.16410727     -11.79810431       5.86000784
C        8.00138852     -11.02188094       5.78298545
C        4.47306934      -7.31250315       5.61929863
O        4.71542768      -6.80281637       6.71060069
H        2.36190273       0.65772072       1.21373959
H        3.77951964      -0.74870250       2.64432953
H        1.01615880      -4.02626986       2.15824375
H       -0.40398631      -2.61573165       0.72207556
H        4.26245328      -1.87298270       4.76226847
H        4.56976491     -10.38317489       2.71601768
H        3.02525396      -9.69362014       2.18055771
H        3.07984255     -10.68563485       3.65539193
H        5.78120661     -13.40884279       4.93825769
H        7.79674665     -14.80299035       5.05630584
H       10.10992368     -15.08105485       5.38598530
H       10.73017526     -14.07255821       6.69483741
H       11.11587931     -13.69055328       4.98935086
H        8.03569444      -9.95456170       5.99298322
C       10.39037374     -11.13587828       6.22239881
C       11.41737191     -10.58126397       6.52590125
Br      13.07794109      -9.68449954       7.01663902
