173
Properties=species:S:1:pos:R:3 pbc="F F F"
C        0.00000000       0.00000000       0.00000000
C        0.88212215       0.88212215      -0.88212215
C        0.55565959       2.22527959      -1.06364024
C        1.37040243       3.03844623      -1.85926990
C        2.51559253       2.51356107      -2.47490971
C        2.81466589       1.15370343      -2.29606340
C        2.00606941       0.33966765      -1.49834299
C        3.41610233       3.33515346      -3.27523033
C        3.60743573       4.68854676      -3.09391098
S        4.83532541       5.24752859      -4.14526331
C        5.02994426       3.66288973      -4.77880704
N        4.20420990       2.76758421      -4.25889705
N        5.95593321       3.41381165      -5.77680215
N        5.90454804       2.22072733      -6.47338680
C        6.87912243       2.27855657      -7.33842668
C        7.14396243       1.17766247      -8.31306169
C        7.74835826       3.50733181      -7.24380994
H        8.74071376       3.20895876      -6.88539438
N        7.73854341       4.25049852      -8.49938276
N        8.72182877       3.69522140      -9.43729722
C        8.81184525       4.34687257     -10.61873496
C        9.49701461       3.72027358     -11.66693064
C        9.65331421       4.32338529     -12.92188897
C        9.12823101       5.59531161     -13.17470189
C        9.32032623       6.21732455     -14.52343941
C        8.44742469       6.24288597     -12.13190876
Br       7.70790907       7.98385061     -12.35587884
C        8.29650357       5.62532416     -10.88442717
C        7.04885948       4.24321701      -6.11279462
O        7.42868547       5.26107881      -5.53908046
H       -0.32698912       2.65024429      -0.59466644
H        1.09291363       4.07961305      -2.00002500
H        3.69482968       0.72719947      -2.77864326
H        2.26924563      -0.70606304      -1.37063831
H        3.13633579       5.36388176      -2.39748690
H        6.85596954       1.49464327      -9.31834467
H        6.55921422       0.29258646      -8.04763113
H        8.20513713       0.91727149      -8.29846071
H        9.91120369       2.73186170     -11.48524171
H       10.19194617       3.77670237     -13.68739431
H        9.83258280       5.53415098     -15.21023006
H        9.93266668       7.12089576     -14.44400844
H        8.35509052       6.46426555     -14.97642739
H        7.77270101       6.13348396     -10.07705438
C       -0.88212215      -0.88212215      -0.88212215
C       -2.04927823      -0.35873365      -1.43656753
C       -2.85089792      -1.16055673      -2.25666391
C       -2.48859048      -2.48765321      -2.52781963
C       -1.32045949      -3.00124737      -1.94272585
C       -0.51487407      -2.20210591      -1.12710007
C       -3.27061591      -3.34389199      -3.41197822
C       -4.04501635      -2.88739679      -4.45748034
S       -4.69146844      -4.21315595      -5.32349290
C       -3.91058241      -5.30708482      -4.25397380
N       -3.22815775      -4.71954046      -3.28299295
N       -4.05536921      -6.67376476      -4.41741304
N       -3.67116211      -7.52742322      -3.40007684
C       -3.93210442      -8.72925855      -3.83474272
C       -3.68255423      -9.94665768      -3.00547468
C       -4.44833807      -8.80123959      -5.24992235
H       -3.68378350      -9.27198982      -5.87929359
N       -5.76354514      -9.43147428      -5.29340526
N       -5.63618609     -10.89355236      -5.32460892
C       -6.80728818     -11.56477663      -5.40538798
C       -6.79804418     -12.94069756      -5.14547708
C       -7.95922017     -13.72140901      -5.21795929
C       -9.18702220     -13.14695565      -5.56426665
C      -10.40855993     -14.00985242      -5.64267783
C       -9.21296670     -11.77061466      -5.83863806
Br     -10.82370673     -10.88539219      -6.33853960
C       -8.04454204     -11.00333928      -5.75837359
C       -4.48714277      -7.32178527      -5.59594307
O       -4.71632513      -6.81916669      -6.69335292
H       -2.34635574       0.66700661      -1.23857248
H       -3.76377376      -0.73952460      -2.66925331
H       -1.03167699      -4.03550616      -2.13348926
H        0.38825734      -2.62483485      -0.69724339
H       -4.23860479      -1.87727602      -4.78182364
H       -4.63301477     -10.36745815      -2.66848456
H       -3.08729848      -9.68618611      -2.12594722
H       -3.13799240     -10.68987682      -3.59300011
H       -5.85116597     -13.40135820      -4.87578292
H       -7.87712546     -14.77986350      -4.99905388
H      -10.18974142     -15.04167065      -5.34555176
H      -10.79088484     -14.03897625      -6.66770979
H      -11.18738686     -13.63973790      -4.96865869
H       -8.06830177      -9.93754694      -5.97739064
C       -0.88212215       0.88212215       0.88212215
C       -2.24712083       0.61642683       0.98103175
C       -3.05415069       1.41409576       1.79987210
C       -2.50038394       2.47893078       2.52474859
C       -1.12762442       2.74210825       2.39470005
C       -0.31763056       1.94475730       1.58169220
C       -3.29593964       3.30700071       3.42354577
C       -4.42616906       2.87744222       4.08628220
S       -4.98525538       4.10562262       5.13723931
C       -3.69909537       5.13067645       4.64186922
N       -2.91020902       4.60102404       3.71945810
N       -3.57562791       6.40614228       5.16477682
N       -2.72713187       7.31347883       4.55805147
C       -2.82856619       8.40937234       5.25816716
C       -2.07917256       9.65216535       4.90334868
C       -3.70977154       8.31159091       6.47813755
H       -3.08004450       8.38204540       7.37297700
N       -4.80293392       9.27554238       6.40994838
N       -4.36628566      10.58887979       6.89918194
C       -5.32743669      11.53999416       6.91002194
C       -4.93383401      12.87341146       7.07697335
C       -5.85878580      13.92514221       7.11466045
C       -7.23009322      13.67655948       6.99159180
C       -8.19444449      14.82111659       7.04552911
C       -7.64357079      12.34444348       6.83420515
Br      -9.48551947      11.88588805       6.67623100
C       -6.70657841      11.30479498       6.79488152
C       -4.17945195       6.87145080       6.35396836
O       -4.82895998       6.22643413       7.17345063
H       -2.69438857      -0.20416985       0.42770288
H       -4.11816196       1.20016534       1.85422438
H       -0.68401695       3.57468623       2.94196924
H        0.74280917       2.16700967       1.50962040
H       -4.92805423       1.92376602       4.04588420
H       -2.76814743      10.39914323       4.50166683
H       -1.32497041       9.43153752       4.14292388
H       -1.58036621      10.05001511       5.79048801
H       -3.87155738      13.08209226       7.17465746
H       -5.48075704      14.93300780       7.24227800
H       -7.67230174      15.78139694       7.12326515
H       -8.84567978      14.73140203       7.92048907
H       -8.80169662      14.85834710       6.13573974
H       -7.03210438      10.27286422       6.67827076
C        0.88212215      -0.88212215       0.88212215
C        0.30227008      -1.88650729       1.65580205
C        1.10996019      -2.70504024       2.45311813
C        2.50022221      -2.52482389       2.47901722
C        3.06155404      -1.49430913       1.70856954
C        2.25868683      -0.67798328       0.90740994
C        3.38289775      -3.38306017       3.26052819
C        3.11368263      -4.69734417       3.57886667
S        4.45364607      -5.38474376       4.38972747
C        5.30190188      -3.89564122       4.27409794
N        4.61468818      -2.92589377       3.69010921
N        6.57430937      -3.76866316       4.80357448
N        7.12483209      -2.51058847       4.96324160
C        8.30482172      -2.70855486       5.48272910
C        9.21730537      -1.58000647       5.83737475
C        8.69949799      -4.15504145       5.64496057
H        9.51281790      -4.37803309       4.94421591
N        8.98094203      -4.46476872       7.04271393
N       10.36315700      -4.10718350       7.38400688
C       10.72817568      -4.39556832       8.65370878
C       11.91067157      -3.82872631       9.14482094
C       12.37590271      -4.08044824      10.44223752
C       11.66855603      -4.92515073      11.30453774
C       12.19684909      -5.18210620      12.68213489
C       10.48633091      -5.51068471      10.82520381
Br       9.45207644      -6.69180126      11.90376081
C       10.03266948      -5.24633386       9.52725157
C        7.44239178      -4.83482240       5.12765694
O        7.27626936      -6.03404249       4.91853288
H       -0.77263175      -2.04186380       1.64868956
H        0.63901574      -3.47403082       3.05950512
H        4.14001175      -1.33294154       1.72771912
H        2.72338650       0.10415658       0.31459098
H        2.24392025      -5.29555215       3.35823206
H        9.27156948      -1.47383061       6.92355739
H        8.83885338      -0.64464147       5.41593695
H       10.21541054      -1.77021995       5.43523884
H       12.47153706      -3.17071465       8.48605538
H       13.29725040      -3.60310750      10.75568494
H       13.10116155      -4.59571915      12.88008313
H       12.45960393      -6.23793328      12.80003367
H       11.45831933      -4.89888038      13.43858375
H        9.11841322      -5.70693576       9.15789038
