162
Properties=species:S:1:pos:R:3 pbc="F F F"
C       -2.41774258       3.71418163      -5.80785595
O       -2.60403228       4.83076403      -6.67317621
C       -1.46376270       5.39182969      -7.19131644
C       -0.17335973       5.21409431      -6.69379255
C        0.90661070       5.85467896      -7.31797392
C        2.27694859       5.71055658      -6.78460330
N        2.52249934       4.97865801      -5.74427219
N        3.81653793       4.97491481      -5.33215583
C        4.30593585       4.20594325      -4.29150166
O        5.51879123       4.17145893      -4.08317748
C        3.39188174       3.39600316      -3.43674965
C        3.90264960       2.21214735      -2.88083162
C        3.10308709       1.40814814      -2.06285330
C        1.79146707       1.79146707      -1.79146707
C        1.28026917       2.97841307      -2.31277192
C        2.08549022       3.78607429      -3.12319526
C        0.70731665       6.66525255      -8.43911650
C       -0.58545687       6.85157558      -8.92911151
C       -1.66372896       6.22658299      -8.30049607
O       -2.94128395       6.41471545      -8.76176891
H       -3.40260229       3.28197168      -5.60663275
H       -1.98831307       4.02678331      -4.85081950
H       -1.80495538       2.94099305      -6.28371079
H        0.01388622       4.59906165      -5.81920664
H        3.07586668       6.26718539      -7.30610223
H        4.52370778       5.47067979      -5.86602360
H        4.92932230       1.91097558      -3.08537637
H        3.51425738       0.49235776      -1.64474181
H        0.26315531       3.28991664      -2.08922534
H        1.68202217       4.72422912      -3.49147205
H        1.54690609       7.15647176      -8.92365300
H       -3.51768142       5.90700819      -8.15759868
C       -0.76966363       7.69547245     -10.08128595
C       -0.92393679       8.40223608     -11.04623205
Br      -1.17338344       9.54501309     -12.60646827
C       -5.48155307      -4.12857953       2.50583760
O       -6.79592013      -4.67488179       2.57089396
C       -7.22957877      -5.34323732       1.45343267
C       -6.67502884      -5.23792383       0.17842554
C       -7.22308823      -5.97518182      -0.88099352
C       -6.67510361      -5.84961893      -2.24738594
N       -5.66794140      -5.07559654      -2.50189161
N       -5.29901539      -5.01700249      -3.80759069
C       -4.20768529      -4.31238832      -4.28330716
O       -3.87804164      -4.43197720      -5.46340880
C       -3.40723537      -3.43348569      -3.38391350
C       -2.04300930      -3.27616435      -3.67645492
C       -1.23454888      -2.46007760      -2.87946205
C       -1.79146707      -1.79146707      -1.79146707
C       -3.14986443      -1.91532291      -1.50626682
C       -3.95872148      -2.72497329      -2.31106500
C       -8.31598854      -6.82162250      -0.67407465
C       -8.87721428      -6.91748399       0.59946804
C       -8.34242706      -6.17333150       1.65240847
O       -8.89497088      -6.24555170       2.90532217
H       -5.21942832      -3.77371329       3.50713947
H       -5.44649624      -3.27028618       1.82749268
H       -4.74863084      -4.89051280       2.21939519
H       -5.83243016      -4.58226805      -0.01745630
H       -7.17405140      -6.43488721      -3.04021569
H       -5.76200671      -5.60277910      -4.49562537
H       -1.60400088      -3.79229178      -4.52938159
H       -0.17904733      -2.35375940      -3.11855021
H       -3.59187044      -1.38158847      -0.66883838
H       -5.02110101      -2.78163201      -2.09499032
H       -8.73546278      -7.39546944      -1.49609863
H       -8.37644413      -5.62907899       3.45859768
C      -10.00651910      -7.79042480       0.78984913
C      -10.95231189      -8.52151272       0.94929329
Br     -12.48157885      -9.70362007       1.20710100
C        2.55638004       4.53672639       5.12394866
O        2.70439679       5.75296105       5.85134370
C        1.56609711       6.25303980       6.43244074
C        0.26015929       5.89795074       6.09673567
C       -0.81674443       6.49401437       6.76850478
C       -2.20888385       6.16053600       6.40268863
N       -2.47407166       5.30025179       5.47110609
N       -3.79407192       5.12617104       5.20336560
C       -4.29655015       4.20544678       4.30138383
O       -5.51308309       4.03084102       4.22950354
C       -3.38796096       3.40080108       3.43587252
C       -3.81964920       2.11982338       3.05615598
C       -3.02139974       1.31388402       2.23880477
C       -1.79146707       1.79146707       1.79146707
C       -1.36305457       3.07180893       2.13659066
C       -2.16803277       3.88000563       2.94672137
C       -0.59794947       7.43635834       7.77737788
C        0.70867451       7.79936213       8.10454261
C        1.78178399       7.21808139       7.42705270
O        3.07036110       7.57829530       7.72726620
H        3.55784947       4.18321321       4.86063840
H        2.00465817       4.70095573       4.19299217
H        2.07982893       3.76346933       5.73610805
H        0.05617321       5.17685057       5.31147716
H       -3.00864883       6.68979993       6.95070553
H       -4.49529109       5.60547858       5.75964152
H       -4.78302627       1.74402752       3.39862046
H       -3.37006581       0.32268820       1.95860293
H       -0.41209862       3.45484644       1.77535222
H       -1.83424930       4.88720155       3.17627249
H       -1.43449228       7.89296101       8.29957756
H        3.63664407       7.06686218       7.11670733
C        0.91196572       8.77655643       9.14250407
C        1.08222210       9.59495665      10.01179679
Br       1.35751228      10.91824060      11.41736959
C        6.31281559      -2.96546290      -2.17398349
O        7.69114376      -3.32139317      -2.11262896
C        8.07134286      -4.08698825      -1.03894768
C        7.34714032      -4.24535607       0.14203074
C        7.85726053      -5.05506261       1.16694044
C        7.12466196      -5.20634146       2.44110506
N        5.98908931      -4.61566036       2.64067987
N        5.44985429      -4.80039979       3.87335449
C        4.21350242      -4.32159506       4.26828328
O        3.75555780      -4.65723041       5.36063943
C        3.41416083      -3.42949629       3.38097744
C        2.01547637      -3.49523542       3.48491679
C        1.20439725      -2.68100654       2.68868474
C        1.79146707      -1.79146707       1.79146707
C        3.17850353      -1.69476697       1.69818366
C        3.98800356      -2.50379721       2.50295900
C        9.08152036      -5.71274116       1.01742417
C        9.81067036      -5.54446196      -0.15990209
C        9.31169698      -4.72724521      -1.17559210
O       10.02614696      -4.53998436      -2.33093092
H        6.13245419      -2.50232054      -3.14877259
H        6.06289628      -2.22960089      -1.40320743
H        5.67074159      -3.84986077      -2.10085391
H        6.39810883      -3.74070609       0.29333959
H        7.59846746      -5.83368674       3.21700010
H        5.90203558      -5.41728375       4.54109184
H        1.55168286      -4.18502873       4.18896266
H        0.12288076      -2.74886656       2.77960963
H        3.64060928      -0.98963336       1.01205465
H        5.06589061      -2.38979173       2.44204100
H        9.47193753      -6.34351392       1.81157940
H        9.49752456      -3.92026008      -2.87085920
C       11.07242829      -6.22587612      -0.29120964
C       12.12915055      -6.79656048      -0.40117970
Br      13.83778108      -7.71930883      -0.57899200
C       -0.00445707       0.01189536      -1.78238275
H       -0.66409135       0.67374010      -2.43557963
H        0.65740317      -0.63156657      -2.45157240
C       -0.90989263      -0.90692880      -0.91072765
C        0.90977584       0.90977584      -0.90977584
C       -0.00465871       1.77757030       0.00794375
H       -0.66225468       2.44313916      -0.64384735
H        0.64322798       2.43503045       0.67728295
C       -1.78241447       0.00034974      -0.00472694
H       -2.45427497      -0.65498947       0.64260836
H       -2.43311707       0.67328779      -0.65473579
C       -0.91132561       0.90220522       0.91563759
C       -0.01476271      -0.02253852       1.78660255
H       -0.67934791      -0.69751639       2.42135241
H        0.63392994       0.61504881       2.47327442
C        0.01484550      -1.77751727      -0.01636693
H        0.67870853      -2.42144646      -0.68295456
H       -0.62264859      -2.45592969       0.64226336
C        1.78714474       0.01002794       0.00389507
H        2.44202412       0.67113390       0.66197326
H        2.45385902      -0.65136977      -0.64189061
C        0.91606151      -0.90478549       0.90901405
