129
Properties=species:S:1:pos:R:3 pbc="F F F"
C        0.00000000       0.00000000       0.00000000
C        0.88151931       0.88151931      -0.88151931
C        1.83513355       1.71239351      -0.29425534
C        2.64771075       2.51938806      -1.09754764
C        2.50426385       2.49098864      -2.49088375
C        1.53330100       1.66165360      -3.06954633
C        0.72553976       0.85315766      -2.26559127
C        3.34550236       3.33159126      -3.39032540
O        2.91120800       3.63528433      -4.50074162
C        4.69769572       3.81214489      -2.87136970
N        5.61763371       4.05901559      -3.95793530
C        5.71378316       5.24837192      -4.69807408
C        5.01972816       6.43245227      -4.53313928
C        5.31624667       7.49266690      -5.40169975
C        6.28874331       7.34992232      -6.41074371
C        6.97984045       6.15261339      -6.58314354
C        6.66403363       5.12697422      -5.71350062
C        7.20550962       3.76956993      -5.64653006
O        8.06805585       3.29281399      -6.34748249
C        6.45881546       3.08549379      -4.47304218
O        6.61171534       1.94034876      -4.10546281
H        1.95129785       1.73950273       0.78687813
H        3.37072176       3.16615862      -0.60894220
H        1.40668265       1.63520475      -4.15101469
H       -0.01731600       0.20834918      -2.72884570
H        5.13759560       3.03429278      -2.23811694
H        4.56350690       4.72125164      -2.27765172
H        4.25854562       6.55549359      -3.77082076
H        4.78037083       8.43390227      -5.29122391
H        7.72821074       6.01827111      -7.35679747
C        6.57207633       8.46272318      -7.27964914
C        6.80936774       9.39469390      -8.00735744
Br       7.19304787      10.90161173      -9.18400021
C       -0.88151931      -0.88151931      -0.88151931
C       -2.24237398      -0.99882500      -0.60058343
C       -3.05509491      -1.80236597      -1.40718557
C       -2.50197608      -2.48692568      -2.49723448
C       -1.13013828      -2.37203155      -2.76233110
C       -0.32087602      -1.56547956      -1.95793312
C       -3.32531717      -3.35540286      -3.38669898
O       -2.77610290      -4.26699529      -4.00413577
C       -4.82735536      -3.09569479      -3.45816015
N       -5.37586422      -3.53964813      -4.71907225
C       -5.79881389      -4.84518637      -5.01622889
C       -5.84070116      -5.95351070      -4.19110784
C       -6.32858887      -7.15316043      -4.72886402
C       -6.75805679      -7.22270641      -6.06864614
C       -6.70516172      -6.10791984      -6.90251582
C       -6.21817584      -4.94211878      -6.34421386
C       -6.03779341      -3.62625566      -6.95756054
O       -6.31032730      -3.30642341      -8.09160162
C       -5.44998317      -2.72765402      -5.83971424
O       -5.14103751      -1.56103228      -5.95545712
H       -2.67798660      -0.47037142       0.24443557
H       -4.10799530      -1.88450458      -1.15332269
H       -0.68611194      -2.90434999      -3.60244016
H        0.73980258      -1.47886636      -2.18081510
H       -5.01077661      -2.01870646      -3.38052225
H       -5.32973872      -3.60331501      -2.62935653
H       -5.50164539      -5.92151682      -3.16169775
H       -6.36871623      -8.03923196      -4.09754882
H       -7.02482660      -6.13986739      -7.93858535
C       -7.26004267      -8.46990476      -6.58450123
C       -7.68045584      -9.51443337      -7.01652987
Br      -8.36022837     -11.20334779      -7.71508365
C       -0.88151931       0.88151931       0.88151931
C       -0.76086236       0.81188360       2.26903644
C       -1.56362181       1.61990650       3.08111815
C       -2.48650400       2.49944118       2.50019106
C       -2.60847297       2.55148403       1.10454392
C       -1.80264859       1.74659572       0.29504438
C       -3.36467984       3.38108490       3.32165428
O       -4.43199195       3.76796506       2.84727694
C       -2.91333994       3.73114606       4.73672431
N       -3.47547847       4.99011423       5.16899190
C       -4.74012125       5.16722463       5.75288328
C       -5.68284544       4.21362197       6.08885230
C       -6.87410288       4.65106024       6.68545020
C       -7.09991193       6.01988915       6.92960826
C       -6.15383048       6.98114928       6.58061762
C       -4.99217300       6.51907217       5.99326330
C       -3.83160265       7.27221787       5.51778908
O       -3.66548967       8.46882084       5.57404183
C       -2.85407561       6.20995482       4.95332100
O       -1.77634101       6.43534600       4.44583990
H       -0.04665545       0.13085730       2.72640971
H       -1.45591600       1.53157475       4.15833182
H       -3.32682953       3.22580856       0.64026400
H       -1.90203293       1.80402406      -0.78617811
H       -1.82314180       3.83515776       4.75170575
H       -3.20452745       2.93246419       5.42541863
H       -5.53155595       3.15743177       5.89587224
H       -7.63146284       3.91744994       6.95658422
H       -6.30885835       8.04070012       6.75372086
C       -8.33209305       6.43160035       7.55075525
C       -9.36404473       6.77640848       8.07096586
Br     -11.03262332       7.33393407       8.91210241
C        0.88151931      -0.88151931       0.88151931
C        0.34293199      -1.47738346       2.02146695
C        1.14531737      -2.28875659       2.83057249
C        2.48828064      -2.50355642       2.49429918
C        3.02249842      -1.88880011       1.35320239
C        2.21816591      -1.08212651       0.54399627
C        3.38457707      -3.35934406       3.32349788
O        4.59859347      -3.16285723       3.28578326
C        2.74565524      -4.41909223       4.21646284
N        3.65686497      -5.51257824       4.46514139
C        4.63487091      -5.55351576       5.47184248
C        4.90822432      -4.62154779       6.45554759
C        5.93668416      -4.90977087       7.36415829
C        6.66746774      -6.11046288       7.27147872
C        6.39849901      -7.04407417       6.27302420
C        5.38137097      -6.73049074       5.39264676
C        4.87504299      -7.49429692       4.25226970
O        5.25237796      -8.57996084       3.87601353
C        3.73898112      -6.62952865       3.64884166
O        3.07643076      -6.90849874       2.67259742
H       -0.69881317      -1.31432652       2.28840910
H        0.70001102      -2.72647983       3.71933172
H        4.06677909      -2.04189286       1.08423015
H        2.64380817      -0.61890901      -0.34283830
H        1.86569930      -4.83231910       3.71198693
H        2.43407977      -3.96601955       5.16231094
H        4.36509667      -3.68633918       6.53342412
H        6.17043687      -4.18907641       8.14598373
H        6.95209709      -7.97215796       6.17902428
C        7.71187787      -6.37592991       8.22664087
C        8.58657136      -6.59825855       9.02658917
Br      10.00087674      -6.95774515      10.32003792
