150
Properties=species:S:1:pos:R:3 pbc="F F F"
C        1.79142334       1.79142334      -1.79142334
C        2.74503757       2.62229753      -1.20415937
C        3.55761478       3.42929208      -2.00745166
C        3.41416787       3.40089267      -3.40078778
C        2.44320502       2.57155763      -3.97945035
C        1.63544379       1.76306168      -3.17549530
C        4.25540638       4.24149528      -4.30022942
O        3.82111203       4.54518836      -5.41064565
C        5.60759975       4.72204891      -3.78127372
N        6.52753773       4.96891962      -4.86783933
C        6.62368718       6.15827594      -5.60797810
C        5.92963218       7.34235629      -5.44304330
C        6.22615069       8.40257093      -6.31160377
C        7.19864734       8.25982634      -7.32064774
C        7.88974448       7.06251741      -7.49304756
C        7.57393765       6.03687825      -6.62340464
C        8.11541365       4.67947396      -6.55643408
O        8.97795987       4.20271801      -7.25738652
C        7.36871948       3.99539782      -5.38294621
O        7.52161937       2.85025279      -5.01536683
H        2.86120188       2.64940675      -0.12302589
H        4.28062578       4.07606264      -1.51884622
H        2.31658668       2.54510878      -5.06091871
H        0.89258802       1.11825321      -3.63874972
H        6.04749963       3.94419680      -3.14802096
H        5.47341093       5.63115566      -3.18755574
H        5.16844964       7.46539761      -4.68072478
H        5.69027486       9.34380630      -6.20112793
H        8.63811477       6.92817514      -8.26670150
C        7.48198036       9.37262720      -8.18955317
C        7.71927176      10.30459792      -8.91726147
Br       8.10295189      11.81151575     -10.09390424
C       -1.79142334      -1.79142334      -1.79142334
C       -2.79175060      -2.56978816      -1.20995572
C       -3.60444380      -3.37647177      -2.01344294
C       -3.41415633      -3.40045050      -3.40124148
C       -2.39683683      -2.62390236      -3.97347381
C       -1.58892474      -1.81553730      -3.16953873
C       -4.25345024      -4.24304250      -4.30063836
O       -3.79333776      -4.59868061      -5.38492767
C       -5.63767985      -4.66064852      -3.81259401
N       -6.52911580      -4.91397311      -4.92120777
C       -6.64134169      -6.12409758      -5.62450196
C       -5.99397722      -7.32413422      -5.39692033
C       -6.29769055      -8.40303111      -6.23960374
C       -7.23087467      -8.26279558      -7.28545117
C       -7.87458600      -7.04989808      -7.52082537
C       -7.55282328      -6.00613785      -6.67525942
C       -8.04952068      -4.63009031      -6.67171070
O       -8.87164484      -4.14932663      -7.41709294
C       -7.31906621      -3.93136090      -5.49663639
O       -7.44481037      -2.76989926      -5.17252936
H       -2.94442782      -2.55608925      -0.13311745
H       -4.36487862      -3.98193049      -1.52872553
H       -2.23372887      -2.63861771      -5.05026758
H       -0.80957216      -1.21182789      -3.62819091
H       -6.07142636      -3.84750555      -3.22078548
H       -5.55431961      -5.55287526      -3.18492747
H       -5.26304401      -7.44613748      -4.60539055
H       -5.79822988      -9.35713210      -6.07984711
H       -8.59196083      -6.91741723      -8.32361334
C       -7.52320275      -9.39466666      -8.12629132
C       -7.76802753     -10.34260868      -8.83049494
Br      -8.16388848     -11.87535077      -9.96913264
C       -1.79142334       1.79142334       1.79142334
C       -1.67734613       1.71500813       3.17914021
C       -2.48012401       2.52298902       3.99124549
C       -3.39641167       3.40928343       3.41015322
C       -3.51184323       3.46814859       2.01422117
C       -2.70599805       2.66327678       1.20472593
C       -4.27431588       4.29118196       4.23163324
O       -5.33772580       4.68500503       3.75421519
C       -3.82780052       4.63283832       5.65028354
N       -4.38622082       5.89237606       6.08569980
C       -5.65267806       6.07256814       6.66469503
C       -6.60118589       5.12173101       6.99211487
C       -7.79314660       5.56185727       7.58532152
C       -8.01390122       6.93058051       7.83463969
C       -7.06194299       7.88911833       7.49424814
C       -5.89973410       7.42444582       6.91004062
C       -4.73365565       8.17447355       6.44319249
O       -4.56242189       9.37004944       6.50559308
C       -3.75837431       7.11035573       5.87833346
O       -2.67735741       7.33315747       5.37672410
H       -0.96827951       1.02871551       3.63663950
H       -2.37768078       2.42933128       5.06852259
H       -4.22505836       4.14778935       1.54976645
H       -2.80024079       2.72601219       0.12333798
H       -2.73722466       4.73185859       5.67063415
H       -4.12568108       3.83239198       6.33404928
H       -6.45377524       4.06574655       6.79505024
H       -8.55501251       4.83046256       7.84973402
H       -7.21298709       8.94856957       7.67143473
C       -9.24701124       7.34505465       8.45209484
C      -10.27974088       7.69217674       8.96921353
Br     -11.94957737       8.25344379       9.80535072
C        1.79142334      -1.79142334       1.79142334
C        1.68104540      -1.71122327       3.17922580
C        2.48383374      -2.51918062       3.99134416
C        3.39641395      -3.40924872       3.41018565
C        3.50816971      -3.47192298       2.01412031
C        2.70231285      -2.66706036       1.20462756
C        4.27416554      -4.29128942       4.23167613
O        5.33537007      -4.68899974       3.75257622
C        3.83037615      -4.62824042       5.65230581
N        4.38671883      -5.88808367       6.08949418
C        5.65417670      -6.07001512       6.66574941
C        6.60590187      -5.12075527       6.98837464
C        7.79824455      -5.56239521       7.57968564
C        8.01617837      -6.93103916       7.83190389
C        7.06095064      -7.88802363       7.49633519
C        5.89844420      -7.42189008       6.91388627
C        4.72930359      -8.17014350       6.45187460
O        4.55521564      -9.36512191       6.51772685
C        3.75528303      -7.10499195       5.88678852
O        2.67244425      -7.32632525       5.38846949
H        0.97486864      -1.02199068       3.63677520
H        2.38434885      -2.42254985       5.06863595
H        4.21849413      -4.15453176       1.54958827
H        2.79366483      -2.73275863       0.12316749
H        2.73960911      -4.72445350       5.67565478
H        4.13199948      -3.82682861       6.33329425
H        6.46065544      -4.06490172       6.78901488
H        8.56261678      -4.83226362       7.84032868
H        7.20977155      -8.94740321       7.67581665
C        9.24979599      -7.34707000       8.44729474
C       10.28295075      -7.69549583       8.96268457
Br      11.95347462      -8.25887092       9.79602634
C       -0.00445707       0.01189536      -1.78238275
H       -0.66409135       0.67374010      -2.43557963
H        0.65740317      -0.63156657      -2.45157240
C       -0.90989263      -0.90692880      -0.91072765
C        0.90977584       0.90977584      -0.90977584
C       -0.00465871       1.77757030       0.00794375
H       -0.66225468       2.44313916      -0.64384735
H        0.64322798       2.43503045       0.67728295
C       -1.78241447       0.00034974      -0.00472694
H       -2.45427497      -0.65498947       0.64260836
H       -2.43311707       0.67328779      -0.65473579
C       -0.91132561       0.90220522       0.91563759
C       -0.01476271      -0.02253852       1.78660255
H       -0.67934791      -0.69751639       2.42135241
H        0.63392994       0.61504881       2.47327442
C        0.01484550      -1.77751727      -0.01636693
H        0.67870853      -2.42144646      -0.68295456
H       -0.62264859      -2.45592969       0.64226336
C        1.78714474       0.01002794       0.00389507
H        2.44202412       0.67113390       0.66197326
H        2.45385902      -0.65136977      -0.64189061
C        0.91606151      -0.90478549       0.90901405
