177
Properties=species:S:1:pos:R:3 pbc="F F F"
C        0.00000000       0.00000000       0.00000000
C        0.88186235       0.88186235      -0.88186235
C        0.37366251       1.39554833      -2.07478333
C        1.18253605       2.19862098      -2.88092417
C        2.49458504       2.47532969      -2.48974518
C        2.99507066       1.98252215      -1.28532313
C        2.18666233       1.17263170      -0.48356471
O        3.21930800       3.32628373      -3.35231151
C        4.60537510       3.28609730      -3.44741722
O        5.35982405       2.52211805      -2.87270605
C        5.04310857       4.33513157      -4.40788037
C        4.37357960       5.56482319      -4.38367598
C        4.78607993       6.56599412      -5.24165553
N        5.81762833       6.37299223      -6.09476812
C        6.48358314       5.20264263      -6.12477279
C        7.55725602       5.05914868      -7.01500496
C        7.95212559       6.20880993      -7.90643776
C        8.27892278       3.85886067      -7.09238511
C        7.93348000       2.78703756      -6.28609329
C        6.86966322       2.91448720      -5.39744334
C        6.13183127       4.12178797      -5.28987787
C        4.14507448       7.89695006      -5.30532343
C        4.11210419       8.61746461      -6.51579039
C        3.50657948       9.87545226      -6.60544206
C        2.92440724      10.44020057      -5.47639988
C        2.94747306       9.76128627      -4.26223468
C        3.55493697       8.50233291      -4.17918654
H       -0.64553938       1.17810630      -2.38266136
H        0.78961577       2.60408517      -3.80903419
H        4.00181606       2.21158535      -0.94926546
H        2.58396913       0.77751677       0.44794978
H        3.54090451       5.72779395      -3.70797491
H        8.81066647       5.95279137      -8.53634700
H        8.23359627       7.07819454      -7.30322050
H        7.12333486       6.47674200      -8.56990212
H        9.11268990       3.75871996      -7.78377267
H        8.48914727       1.85437025      -6.34309359
H        6.62839486       2.04900163      -4.78326084
H        4.56584410       8.19164305      -7.41045413
H        3.50042901      10.39908075      -7.55760410
H        2.50391680      10.20176808      -3.37295066
H        3.57592290       8.01156539      -3.20863376
C        2.29977902      11.73483639      -5.56217691
C        1.77665289      12.81909388      -5.63401518
Br       0.93080219      14.57224655      -5.75017158
C       -0.88186235      -0.88186235      -0.88186235
C       -0.37923074      -1.38181368      -2.08294976
C       -1.18812875      -2.18490866      -2.88904379
C       -2.49470056      -2.47536983      -2.48958953
C       -2.98935753      -1.99632551      -1.27723289
C       -2.18101498      -1.18638173      -0.47546204
O       -3.21952578      -3.32520811      -3.35316935
C       -4.60659591      -3.29548711      -3.43680661
O       -5.36247908      -2.54228620      -2.84988287
C       -5.04365174      -4.34028157      -4.40218719
C       -4.36408999      -5.56466454      -4.39332424
C       -4.77546881      -6.56221782      -5.25604295
N       -5.81541090      -6.37072932      -6.09924846
C       -6.49096891      -5.20560896      -6.11442069
C       -7.57293562      -5.06366814      -6.99480591
C       -7.96576269      -6.20929048      -7.89232010
C       -8.30482623      -3.86868193      -7.05666040
C       -7.96148694      -2.80060892      -6.24451499
C       -6.88951742      -2.92657359      -5.36550274
C       -6.14116182      -4.12868371      -5.27365157
C       -4.12432683      -7.88738352      -5.33563763
C       -4.09537413      -8.59785828      -6.55212679
C       -3.48050734      -9.85013904      -6.65682743
C       -2.88469025     -10.41920669      -5.53711075
C       -2.90337492      -9.75027897      -4.31734012
C       -3.52024204      -8.49699520      -4.21921918
H        0.63566395      -1.15365666      -2.39723556
H       -0.79949380      -2.57970669      -3.82353464
H       -3.99147492      -2.23622846      -0.93496350
H       -2.57392544      -0.80199516       0.46238448
H       -3.52468657      -5.72630924      -3.72567756
H       -8.83140694      -5.95518147      -8.51321643
H       -8.23534375      -7.08574512      -7.29392245
H       -7.14024710      -6.46516122      -8.56457065
H       -9.14494385      -3.76974599      -7.74049270
H       -8.52507353      -1.87204516      -6.28949242
H       -6.65024396      -2.06412494      -4.74628844
H       -4.55975255      -8.16855123      -7.43963750
H       -3.47786242     -10.36603321      -7.61321823
H       -2.44910527     -10.19428457      -3.43524571
H       -3.53730846      -8.01422779      -3.24458580
C       -2.25039535     -11.70800964      -5.63838734
C       -1.71917337     -12.78738210      -5.72320648
Br      -0.86023236     -14.53263609      -5.86035186
C       -0.88186235       0.88186235       0.88186235
C       -2.13878042       1.27901397       0.42619978
C       -2.94178268       2.08780176       1.23249675
C       -2.47763115       2.49738852       2.48464025
C       -1.23159888       2.08035036       2.95096670
C       -0.42609326       1.27728332       2.13948217
O       -3.37707923       3.28118340       3.23964061
C       -2.94864911       4.19432018       4.19592034
O       -1.79843727       4.47828859       4.47792230
C       -4.14576169       4.81243190       4.82792692
C       -5.24908561       3.98897098       5.08402218
C       -6.35816125       4.53291299       5.70265535
N       -6.38902899       5.83716316       6.05919654
C       -5.33366866       6.64318956       5.83414034
C       -5.40905106       7.98348174       6.23887687
C       -6.65235154       8.49241582       6.92260592
C       -4.34189378       8.86731869       6.02095609
C       -3.19015586       8.42452948       5.39192550
C       -3.10076804       7.09657703       4.98424868
C       -4.16027656       6.17871528       5.20450527
C       -7.57866062       3.75735736       6.01133001
C       -8.84067653       4.38400476       6.02067791
C      -10.01181226       3.67268335       6.30297820
C       -9.93907490       2.31397227       6.58796052
C       -8.70846505       1.66500256       6.59752640
C       -7.53994305       2.38262341       6.31388996
H       -2.49991606       0.96459344      -0.54928123
H       -3.92311153       2.39635807       0.88326553
H       -0.86615945       2.36291576       3.93359167
H        0.55116521       0.96546507       2.49923627
H       -5.23716062       2.94325056       4.79626219
H       -6.56041496       9.55082949       7.18856039
H       -6.83284077       7.93472410       7.84744645
H       -7.51815284       8.39190604       6.25992009
H       -4.40871637       9.90446840       6.34199776
H       -2.36073856       9.10596845       5.21990410
H       -2.18045914       6.78852687       4.49167133
H       -8.91663934       5.44898202       5.80231992
H      -10.96653116       4.19165596       6.29892675
H       -8.64307484       0.60522968       6.83033103
H       -6.59330760       1.84830407       6.35451038
C      -11.14092354       1.57631745       6.87955134
C      -12.14747177       0.95853153       7.12375865
Br     -13.77497514      -0.04037605       7.51862122
C        0.88186235      -0.88186235       0.88186235
C        1.93750229      -1.59380582       0.31268607
C        2.74020425      -2.40184480       1.12003215
C        2.47575265      -2.49553731       2.48836995
C        1.43607472      -1.76481086       3.06203035
C        0.62896111      -0.96265424       2.25124339
O        3.36540221      -3.30737850       3.22512252
C        2.99214813      -3.94358436       4.40315714
O        1.89125223      -3.93950655       4.92388937
C        4.17198533      -4.67580468       4.93833050
C        5.42559181      -4.06011712       4.83636984
C        6.53009716      -4.70526229       5.35837013
N        6.41454498      -5.91117931       5.95966439
C        5.21638196      -6.51451558       6.08010102
C        5.14749446      -7.75615578       6.72775943
C        6.40048680      -8.38366271       7.28322376
C        3.92642965      -8.43104611       6.87269279
C        2.76181729      -7.87669964       6.36809392
C        2.81454016      -6.64464464       5.72240895
C        4.03435306      -5.93498222       5.57416182
C        7.89941789      -4.15063049       5.29729961
C        9.01528911      -5.00775758       5.22231250
C       10.32096487      -4.50959683       5.15691211
C       10.53415395      -3.13593181       5.17092193
C        9.45611787      -2.26042359       5.25445255
C        8.15164830      -2.76541332       5.31939480
H        2.14230116      -1.52522786      -0.75230074
H        3.56595093      -2.95513931       0.68164490
H        1.23385870      -1.80058366       4.12822452
H       -0.19019759      -0.40527818       2.69845554
H        5.53023815      -3.09613170       4.35030352
H        6.18908217      -9.34264642       7.76807625
H        6.85348500      -7.72769013       8.03383619
H        7.11975612      -8.57100280       6.47922005
H        3.88289633      -9.39225786       7.38002835
H        1.81316212      -8.39637219       6.47707680
H        1.87835004      -6.24419360       5.33811370
H        8.86749025      -6.08743172       5.21301931
H       11.15541451      -5.20322230       5.09847705
H        9.61616162      -1.18549522       5.27697871
H        7.33490877      -2.05251297       5.40870031
C       11.87572825      -2.61697989       5.10408419
C       12.99929673      -2.18235765       5.04810757
Br      14.81601194      -1.47961025       4.95759813
