98
Properties=species:S:1:pos:R:3 pbc="F F F"
C        1.78780991       1.78780991      -1.78780991
S        3.38533895       1.31971238      -2.14371752
C        3.63588369       2.71156928      -3.10072794
C        2.51517091       3.51340627      -3.14405707
C        1.42160273       2.98067105      -2.38082349
C        0.13255722       3.60241402      -2.23382331
C       -0.39504300       4.52653110      -3.05809171
C       -1.68476037       5.14364152      -2.90316702
C       -2.80270517       4.55582242      -2.22009624
C       -3.91912981       5.36470375      -2.23270899
S       -3.63475562       6.82859521      -3.06565692
C       -2.02895846       6.38175322      -3.40945638
Br      -0.89506061       7.53998857      -4.36806256
H        4.58989207       2.87907073      -3.58191809
H        2.49692700       4.44615259      -3.69468785
H       -0.45576581       3.29653381      -1.37170696
H        0.18877903       4.84022344      -3.92015772
H       -2.80221125       3.58047386      -1.74814157
H       -4.88810637       5.16392414      -1.79640009
C       -1.78780991      -1.78780991      -1.78780991
S       -3.48284956      -1.71995949      -1.64595980
C       -3.68523261      -2.88626923      -2.87667907
C       -2.47611860      -3.31376917      -3.38274649
C       -1.35418097      -2.67382252      -2.75509379
C        0.02688493      -2.92672117      -3.06895832
C        0.48898931      -3.46636012      -4.21220900
C        1.87190254      -3.71644261      -4.51750811
C        2.98237082      -3.00088060      -3.95470371
C        4.19757919      -3.44278404      -4.43307808
S        4.01374712      -4.71266420      -5.56057942
C        2.31893382      -4.66962062      -5.41156434
Br       1.23929654      -5.86403040      -6.38825666
H       -4.67635256      -3.20618129      -3.16834705
H       -2.41221200      -4.06283919      -4.16271625
H        0.75258520      -2.66161375      -2.30344642
H       -0.23080356      -3.73752909      -4.98082755
H        2.90389772      -2.19004690      -3.24025500
H        5.18298813      -3.07788641      -4.17731959
C       -1.78780991       1.78780991       1.78780991
S       -1.47415070       3.45584826       1.91876989
C       -2.79855552       3.67559754       2.97402784
C       -3.46401919       2.49262307       3.21599199
C       -2.88342611       1.37720525       2.52246591
C       -3.35661679       0.02033771       2.59184005
C       -4.59145648      -0.36540111       2.96352444
C       -5.05604872      -1.72475114       3.03075061
C       -4.53026674      -2.81437269       2.25731944
C       -5.17049707      -4.00779550       2.51558136
S       -6.40586493      -3.82775449       3.68138606
C       -6.08783562      -2.16314748       3.83756301
Br      -7.07810691      -1.10593416       5.04081777
H       -3.02480915       4.65642941       3.36964233
H       -4.32325535       2.44081788       3.87369422
H       -2.64158356      -0.75478545       2.32567686
H       -5.31080003       0.40362228       3.23473788
H       -3.72770918      -2.73499049       1.53368550
H       -4.97431918      -4.97467112       2.07256981
C        1.78780991      -1.78780991       1.78780991
S        1.51096783      -3.46533059       1.87247044
C        2.81534480      -3.67928728       2.95354883
C        3.44667112      -2.48725926       3.23870387
C        2.85597764      -1.36945034       2.55766929
C        3.29501086      -0.00398739       2.66979630
C        4.51135192       0.40139162       3.07961950
C        4.94178231       1.76918697       3.18945284
C        4.40834033       2.86438881       2.42926198
C        5.01381992       4.06588522       2.73034823
S        6.22569537       3.88691546       3.92071659
C        5.94381794       2.21212270       4.03055590
Br       6.93073236       1.14987897       5.23213713
H        3.05561599      -4.66373124       3.33153367
H        4.28891473      -2.43116306       3.91768966
H        2.56811645       0.76042272       2.40478123
H        5.24229176      -0.35694210       3.34992633
H        3.62493230       2.78361673       1.68508862
H        4.80504137       5.03820729       2.30538379
C       -0.00445707       0.01189536      -1.78238275
H       -0.66409135       0.67374010      -2.43557963
H        0.65740317      -0.63156657      -2.45157240
C       -0.90989263      -0.90692880      -0.91072765
C        0.90977584       0.90977584      -0.90977584
C       -0.00465871       1.77757030       0.00794375
H       -0.66225468       2.44313916      -0.64384735
H        0.64322798       2.43503045       0.67728295
C       -1.78241447       0.00034974      -0.00472694
H       -2.45427497      -0.65498947       0.64260836
H       -2.43311707       0.67328779      -0.65473579
C       -0.91132561       0.90220522       0.91563759
C       -0.01476271      -0.02253852       1.78660255
H       -0.67934791      -0.69751639       2.42135241
H        0.63392994       0.61504881       2.47327442
C        0.01484550      -1.77751727      -0.01636693
H        0.67870853      -2.42144646      -0.68295456
H       -0.62264859      -2.45592969       0.64226336
C        1.78714474       0.01002794       0.00389507
H        2.44202412       0.67113390       0.66197326
H        2.45385902      -0.65136977      -0.64189061
C        0.91606151      -0.90478549       0.90901405
