85
Properties=species:S:1:pos:R:3 pbc="F F F"
C        0.00000000       0.00000000       0.00000000
C        0.88430829       0.88430829      -0.88430829
C        2.19514434       0.57407755      -1.15731330
S        2.91824753       1.73760878      -2.17919665
C        1.46972806       2.65051942      -2.25048368
C        0.44103991       2.08568735      -1.51892501
C       -0.86869501       2.66725749      -1.40892948
C       -1.45017487       3.48310477      -2.30784109
C       -2.75581104       4.07367062      -2.19190116
C       -3.79741726       3.49754597      -1.48751103
S       -5.23316377       4.43282432      -1.54019671
C       -4.48648047       5.62010215      -2.51611928
C       -3.17751504       5.30040679      -2.79029140
H        2.76769894      -0.27561971      -0.81110597
H        1.46342679       3.56738978      -2.82483466
H       -1.42526490       2.41706373      -0.50714249
H       -0.89622341       3.73451056      -3.20853661
H       -3.80655957       2.56255015      -0.94342518
H       -5.04337499       6.48960747      -2.83688777
C       -2.32720528       6.14756010      -3.58584440
C       -1.61507086       6.85705100      -4.25212004
Br      -0.46360974       8.00423779      -5.32943140
C       -0.88430829      -0.88430829      -0.88430829
C       -2.25471401      -0.77947701      -0.89234418
S       -2.96468912      -1.88462867      -1.98573518
C       -1.43084520      -2.49710846      -2.44277750
C       -0.38514108      -1.87347807      -1.78703312
C        0.99611243      -2.21710805      -1.98649634
C        1.52243893      -2.76619485      -3.09701506
C        2.90216950      -3.12021819      -3.29171205
C        3.95375270      -2.47910974      -2.66228270
S        5.48199699      -3.11848690      -3.10336733
C        4.76111009      -4.25802995      -4.15282110
C        3.39085977      -4.14348651      -4.16055640
H       -2.87803882      -0.11124618      -0.31390020
H       -1.38873357      -3.29859608      -3.16832158
H        1.66236297      -2.01099943      -1.15030487
H        0.85911581      -2.97317187      -3.93276770
H        3.91836391      -1.65257364      -1.96520602
H        5.37688202      -4.95224388      -4.70775839
C        2.55002164      -4.99911581      -4.95710505
C        1.84581971      -5.71570534      -5.62421455
Br       0.70718474      -6.87437000      -6.70287419
C       -0.88430829       0.88430829       0.88430829
C       -0.68034248       2.23785173       1.00834098
S       -1.83007731       2.95541021       2.04956544
C       -2.59534941       1.44755549       2.32782627
C       -2.00025562       0.40670529       1.63869135
C       -2.44789083      -0.95685746       1.71645859
C       -3.69742125      -1.36404207       2.00739181
C       -4.14191438      -2.72838419       2.09623054
C       -3.57043348      -3.76812410       1.38533036
S       -4.32380328      -5.27697883       1.69303279
C       -5.43482176      -4.56094381       2.77586301
C       -5.22897254      -3.20622413       2.89043474
H        0.08348909       2.84491535       0.54175894
H       -3.44239960       1.41319381       3.00005781
H       -1.69217920      -1.71659266       1.52335479
H       -4.45326406      -0.60735968       2.20091938
H       -2.74795966      -3.73204434       0.68350043
H       -6.17895534      -5.16822466       3.27238957
C       -6.02904508      -2.37483593       3.75199006
C       -6.69910584      -1.67854830       4.47354265
Br      -7.78253740      -0.55271010       5.64023215
C        0.88430829      -0.88430829       0.88430829
C        0.61864221      -2.21688593       1.09100706
S        1.78455878      -2.94115285       2.10934133
C        2.63943430      -1.46432001       2.26697686
C        2.06198998      -0.42947877       1.55418352
C        2.58199524       0.91029156       1.53578829
C        3.86444355       1.26413264       1.74046008
C        4.38194903       2.60541247       1.73322418
C        3.82682863       3.63677143       0.99758254
S        4.67146498       5.11673910       1.18513136
C        5.80108108       4.39818700       2.24684688
C        5.53296925       3.06405571       2.44426960
H       -0.19903822      -2.80506044       0.69716298
H        3.52198078      -1.44127328       2.89239716
H        1.85667387       1.69866009       1.34092755
H        4.59007391       0.47882310       1.93557296
H        2.96711569       3.60918578       0.34148584
H        6.60073514       4.98915958       2.67154469
C        6.33474612       2.23588358       3.30733668
C        7.00623424       1.54228943       4.03015536
Br       8.09197375       0.42080634       5.19889204
