130
Properties=species:S:1:pos:R:3 pbc="F F F"
C        1.79949915       1.79949915      -1.79949915
C        2.68689166       2.66582452      -1.14796360
C        3.51370551       3.51024558      -1.88737458
C        3.45961333       3.48837520      -3.27760015
C        2.57721428       2.62337852      -3.92948089
C        1.72409776       1.77354307      -3.20297695
C        0.83004391       0.85816063      -3.93350743
C        0.05204486       1.25859670      -4.95295217
C       -0.83885565       0.35621088      -5.70062289
C       -1.73436949      -0.46621587      -4.99619840
C       -2.62873522      -1.30011749      -5.67317197
C       -2.64754944      -1.31965370      -7.06485013
C       -1.77131271      -0.50679760      -7.78201380
C       -0.87364546       0.32863426      -7.10647798
H        2.74001367       2.68989714      -0.06242509
H        4.20120776       4.18186642      -1.37942215
H        4.10729388       4.14033218      -3.85921288
H        2.56794180       2.61308512      -5.01789720
H        0.83156963      -0.17690032      -3.60214802
H        0.05145774       2.29551757      -5.28116124
H       -1.75259278      -0.45431388      -3.90778131
H       -3.31516727      -1.92831014      -5.10998840
H       -3.34615596      -1.96507949      -7.59114523
H       -1.79562770      -0.52969495      -8.86827922
C        0.00955438       1.12955650      -7.91399368
C        0.74923425       1.80032888      -8.59028808
Br       1.94523403       2.88491109      -9.68379892
C       -1.79949915      -1.79949915      -1.79949915
C       -1.28045572      -2.17485858      -3.04536548
C       -2.03371109      -2.96797754      -3.90963704
C       -3.30377404      -3.39138464      -3.53043001
C       -3.82235257      -3.02035576      -2.28736537
C       -3.08546826      -2.20898604      -1.40616348
C       -3.66148972      -1.86615590      -0.09406636
C       -4.91396438      -1.40307079       0.05344144
C       -5.50916566      -1.06567930       1.35686684
C       -4.81197350      -0.21645224       2.23281271
C       -5.36675596       0.16465508       3.45778161
C       -6.63026752      -0.29074587       3.82336641
C       -7.34055730      -1.12907402       2.96572784
C       -6.78678635      -1.51329115       1.73861071
H       -0.28842459      -1.85242808      -3.35148324
H       -1.62884244      -3.25760867      -4.87604521
H       -3.89281598      -4.01581175      -4.19821121
H       -4.81087140      -3.38024483      -2.00780789
H       -3.01194532      -2.01016875       0.76529674
H       -5.56103891      -1.25839625      -0.80870140
H       -3.83074164       0.16883387       1.96103312
H       -4.81196752       0.82395690       4.12149962
H       -7.06334371       0.00924572       4.77418821
H       -8.32657559      -1.47765482       3.26127384
C       -7.57351434      -2.39124478       0.91165456
C       -8.23239904      -3.12653095       0.21907879
Br      -9.29775987      -4.31542650      -0.90075766
C       -1.79949915       1.79949915       1.79949915
C       -2.84748896       2.48338024       1.16981058
C       -3.68565639       3.31719979       1.90846949
C       -3.48231826       3.46639868       3.27687174
C       -2.43937944       2.78334111       3.90735315
C       -1.57323382       1.94849622       3.17888774
C       -0.50447113       1.22626814       3.89097271
C        0.32411203       1.82509025       4.76261551
C        1.39003508       1.11739397       5.49061923
C        2.29712350       0.31672321       4.77601332
C        3.35084403      -0.33138816       5.42655146
C        3.51923066      -0.18345121       6.80032885
C        2.63366007       0.61132639       7.52623717
C        1.57665079       1.26076930       6.87734827
H       -3.01783943       2.37263301       0.10186346
H       -4.49796965       3.84708993       1.41743674
H       -4.13750853       4.11045710       3.85887331
H       -2.31365058       2.90338636       4.98188718
H       -0.41820551       0.16489634       3.67371549
H        0.23636507       2.88782476       4.97667686
H        2.19834891       0.20118002       3.69804354
H        4.04342359      -0.94569013       4.85562471
H        4.34134059      -0.68412554       7.30537590
H        2.77550819       0.72026719       8.59819757
C        0.69519839       2.05375443       7.69454853
C       -0.04301798       2.71787947       8.37895375
Br      -1.23665143       3.79171351       9.48557910
C        1.79949915      -1.79949915       1.79949915
C        1.67733631      -1.63770488       3.18563859
C        2.45971824      -2.39867005       4.05293738
C        3.36166050      -3.32511765       3.53881053
C        3.48329593      -3.48993532       2.15684245
C        2.71430108      -2.72262345       1.26369325
C        2.85609221      -2.95065940      -0.18503963
C        4.04913669      -3.01393925      -0.79948221
C        4.20988098      -3.25145084      -2.24335371
C        3.48809000      -2.46275237      -3.15522933
C        3.65127629      -2.62670119      -4.53365822
C        4.54401439      -3.57617992      -5.02254733
C        5.27389229      -4.36434312      -4.13433193
C        5.11158671      -4.20300641      -2.75312634
H        0.97424423      -0.91901031       3.59908136
H        2.36331983      -2.27099247       5.12818403
H        3.96955550      -3.92603058       4.21125285
H        4.18310661      -4.23437118       1.78144633
H        1.93093617      -3.06883880      -0.74295763
H        4.97321967      -2.89358538      -0.23866849
H        2.79853724      -1.70000118      -2.79766378
H        3.08450977      -2.00546716      -5.22346594
H        4.67394877      -3.70054492      -6.09458392
H        5.96867004      -5.10177240      -4.52748587
C        5.88937897      -5.06165595      -1.89793035
C        6.54077998      -5.78077494      -1.18170371
Br       7.59404032      -6.94352953      -0.02362581
C       -0.00445707       0.01189536      -1.78238275
H       -0.66409135       0.67374010      -2.43557963
H        0.65740317      -0.63156657      -2.45157240
C       -0.90989263      -0.90692880      -0.91072765
C        0.90977584       0.90977584      -0.90977584
C       -0.00465871       1.77757030       0.00794375
H       -0.66225468       2.44313916      -0.64384735
H        0.64322798       2.43503045       0.67728295
C       -1.78241447       0.00034974      -0.00472694
H       -2.45427497      -0.65498947       0.64260836
H       -2.43311707       0.67328779      -0.65473579
C       -0.91132561       0.90220522       0.91563759
C       -0.01476271      -0.02253852       1.78660255
H       -0.67934791      -0.69751639       2.42135241
H        0.63392994       0.61504881       2.47327442
C        0.01484550      -1.77751727      -0.01636693
H        0.67870853      -2.42144646      -0.68295456
H       -0.62264859      -2.45592969       0.64226336
C        1.78714474       0.01002794       0.00389507
H        2.44202412       0.67113390       0.66197326
H        2.45385902      -0.65136977      -0.64189061
C        0.91606151      -0.90478549       0.90901405
