93
Properties=species:S:1:pos:R:3 pbc="F F F"
C        0.00000000       0.00000000       0.00000000
C        0.88559985       0.88559985      -0.88559985
C        2.28318181       0.94262161      -0.64502530
C        2.91007275       1.78607749      -1.53077316
S        1.81231875       2.48730065      -2.63269225
C        0.44689862       1.68414531      -1.92965572
C       -0.88247633       1.84853363      -2.43466181
C       -1.28802458       2.92439189      -3.12903852
C       -2.70635281       3.02399889      -3.60753121
O       -3.44286813       2.04793639      -3.45438339
C       -3.15510984       4.25350701      -4.25661264
S       -2.41014422       5.77156636      -3.92410644
C       -3.46102432       6.61455207      -4.97216775
C       -4.38135986       5.77730868      -5.55810512
C       -4.20493423       4.43154649      -5.13744165
H        2.80833068       0.39892425       0.13077429
H        3.96392920       2.02263228      -1.58726063
H       -1.59960124       1.06054730      -2.20790486
H       -0.62078106       3.74077251      -3.36642173
H       -3.35904995       7.68339269      -5.10485671
H       -5.13957570       6.12150025      -6.25118565
C       -5.07533304       3.40981991      -5.65905522
C       -5.80429204       2.55412391      -6.09590659
Br      -6.98295710       1.17053584      -6.80225830
C       -0.88559985      -0.88559985      -0.88559985
C       -2.29051615      -0.89587806      -0.68443451
C       -2.91638641      -1.74671629      -1.56382070
S       -1.80875217      -2.51070636      -2.61285311
C       -0.44095693      -1.72643486      -1.89330786
C        0.89684632      -1.94317198      -2.35439345
C        1.29033742      -3.04993336      -3.00580990
C        2.71816007      -3.20369317      -3.43964419
O        3.47823137      -2.24487158      -3.29281143
C        3.14904983      -4.46388010      -4.04017955
S        2.35091715      -5.94982132      -3.68662441
C        3.40604636      -6.85255249      -4.67918937
C        4.36670777      -6.05924343      -5.26151828
C        4.21780288      -4.69730147      -4.88455532
H       -2.82136589      -0.31506263       0.05994788
H       -3.97467554      -1.95481284      -1.64433371
H        1.62995968      -1.16956974      -2.12924085
H        0.60653618      -3.85363256      -3.23931680
H        3.27669837      -7.92148802      -4.78440981
H        5.13391144      -6.44491737      -5.92210428
C        5.13213264      -3.71636582      -5.40930891
C        5.89788382      -2.89483222      -5.84879005
Br       7.13603871      -1.56648186      -6.55939389
C       -0.88559985       0.88559985       0.88559985
C       -1.09771847       2.24313444       0.52997581
C       -1.91081162       2.87786530       1.43824648
S       -2.40512492       1.83353724       2.69364948
C       -1.51425444       0.49076593       2.05567927
C       -1.51408914      -0.79611983       2.68274980
C       -1.76679059      -0.98912176       3.98773701
C       -1.72923595      -2.37203365       4.56797500
O       -1.58473169      -3.32326462       3.79798457
C       -1.89017542      -2.54487689       6.00971128
S       -1.46336792      -1.29772959       7.11989024
C       -1.88964998      -2.24101314       8.47705867
C       -2.33168329      -3.49166915       8.11403980
C       -2.32088927      -3.65994402       6.70310866
H       -0.68243030       2.73512693      -0.34107660
H       -2.24318044       3.90698173       1.42365994
H       -1.26368100      -1.65205214       2.05722206
H       -2.00429041      -0.17240615       4.65452892
H       -1.79074088      -1.83751555       9.47597412
H       -2.64390247      -4.24162944       8.83083717
C       -2.76355913      -4.90846284       6.13844580
C       -3.13429515      -5.95409735       5.66554065
Br      -3.73374393      -7.64479992       4.90089303
C        0.88559985      -0.88559985       0.88559985
C        0.98872427      -2.27372071       0.60838374
C        1.81923929      -2.90326734       1.50441676
S        2.45986124      -1.81794981       2.65450059
C        1.61391168      -0.46131184       1.98547613
C        1.73548642       0.85927699       2.52450968
C        2.08579948       1.11593019       3.79553655
C        2.17300781       2.53171399       4.28388347
O        2.03718925       3.44066263       3.46292502
C        2.43976458       2.78289696       5.69814220
S        2.01081006       1.63836875       6.91308726
C        2.58415033       2.63391270       8.17545788
C        3.07809475       3.82743215       7.70339134
C        2.98413903       3.90789994       6.28781481
H        0.48669995      -2.79031752      -0.20053683
H        2.08520143      -3.95108887       1.53753181
H        1.49786332       1.68934643       1.86033402
H        2.31574872       0.32834031       4.49900476
H        2.52686001       2.30083582       9.20317526
H        3.48329340       4.59816775       8.34798455
C        3.46519587       5.08669719       5.61504342
C        3.86808098       6.07393989       5.05159737
Br       4.51951211       7.67022784       4.14055277
