85
Properties=species:S:1:pos:R:3 pbc="F F F"
C        0.00000000       0.00000000       0.00000000
C        0.88559985       0.88559985      -0.88559985
C        2.28318181       0.94262161      -0.64502530
C        2.91007275       1.78607749      -1.53077316
S        1.81231875       2.48730065      -2.63269225
C        0.44689862       1.68414531      -1.92965572
C       -0.88247633       1.84853363      -2.43466181
C       -1.28802458       2.92439189      -3.12903852
C       -2.70635281       3.02399889      -3.60753121
O       -3.44286813       2.04793639      -3.45438339
C       -3.15510984       4.25350701      -4.25661264
S       -2.41014422       5.77156636      -3.92410644
C       -3.46102432       6.61455207      -4.97216775
C       -4.38135986       5.77730868      -5.55810512
C       -4.20493423       4.43154649      -5.13744165
Br      -5.34987068       3.08755109      -5.82358045
H        2.80833068       0.39892425       0.13077429
H        3.96392920       2.02263228      -1.58726063
H       -1.59960124       1.06054730      -2.20790486
H       -0.62078106       3.74077251      -3.36642173
H       -3.35904995       7.68339269      -5.10485671
H       -5.13957570       6.12150025      -6.25118565
C       -0.88559985      -0.88559985      -0.88559985
C       -0.45024156      -1.22832544      -2.19226173
C       -1.37088979      -2.02059035      -2.83544326
S       -2.73340898      -2.33957191      -1.85933075
C       -2.12673179      -1.39507914      -0.53888871
C       -2.84343303      -1.24895843       0.69167235
C       -4.17471501      -1.39062029       0.79992946
C       -4.84888465      -1.20321331       2.12692067
O       -4.14088713      -1.04099022       3.12242570
C       -6.30750854      -1.24530521       2.19780394
S       -7.28769170      -0.83794527       0.84010839
C       -8.73876343      -1.08980559       1.70287351
C       -8.50293185      -1.45791193       3.00678983
C       -7.11137571      -1.53623035       3.28355215
Br      -6.53728470      -2.04070789       5.01673173
H        0.48393365      -0.91692938      -2.64348490
H       -1.30781064      -2.43252240      -3.83348907
H       -2.26389974      -0.97841543       1.57346426
H       -4.79710975      -1.64227581      -0.04702762
H       -9.69504052      -0.95062813       1.21646920
H       -9.29436302      -1.65784529       3.71909810
C       -0.88559985       0.88559985       0.88559985
C       -2.29380237       0.86749717       0.70952917
C       -2.91924055       1.72281373       1.58486912
S       -1.80717355       2.52491436       2.60022373
C       -0.43842190       1.75209149       1.87018626
C        0.90319706       2.00061894       2.30329723
C        1.28818600       3.12565713       2.92793471
C        2.72044562       3.31232514       3.33329777
O        3.49489455       2.36457144       3.18977476
C        3.13917107       4.59048653       3.90369436
S        2.30839183       6.05554225       3.53837816
C        3.36448513       6.99440110       4.49577954
C        4.34934501       6.22872910       5.07466985
C        4.21828267       4.85782822       4.72450836
Br       5.45595089       3.60148865       5.41572310
H       -2.82718387       0.26414863      -0.01485186
H       -3.97950983       1.91363248       1.68067980
H        1.64599197       1.23614523       2.07869766
H        0.59429477       3.92123754       3.15947040
H        3.21785025       8.06260630       4.58444341
H        5.12103032       6.63966086       5.71447966
C        0.88559985      -0.88559985       0.88559985
C        0.60190106      -0.99717134       2.27175631
C        1.49894779      -1.82633479       2.90164081
S        2.65773885      -2.45561810       1.81895469
C        1.99129010      -1.60618127       0.46322827
C        2.53759946      -1.71832328      -0.85520364
C        3.81166940      -2.06090217      -1.10716573
C        4.30759989      -2.13845133      -2.52087392
O        3.49056526      -2.00216836      -3.43328197
C        5.72444606      -2.39678017      -2.76621642
S        6.93139893      -1.96751024      -1.61338060
C        8.20167866      -2.52940215      -2.60538531
C        7.73816280      -3.01965814      -3.80376701
C        6.32255204      -2.93244840      -3.89094653
Br       5.44864838      -3.56181909      -5.44920662
H       -0.21215821      -0.50187033       2.78676852
H        1.52811847      -2.09744379       3.94825985
H        1.87642808      -1.47984680      -1.68742397
H        4.51230799      -2.29129074      -0.31718556
H        9.22739587      -2.46861219      -2.26680860
H        8.38869128      -3.41767568      -4.57325675
