106
Properties=species:S:1:pos:R:3 pbc="F F F"
C        1.79550387       1.79550387      -1.79550387
C        3.19308584       1.85252564      -1.55492932
C        3.81997677       2.69598151      -2.44067719
S        2.72222277       3.39720467      -3.54259627
C        1.35680265       2.59404933      -2.83955974
C        0.02742769       2.75843766      -3.34456583
C       -0.37812055       3.83429592      -4.03894255
C       -1.79644878       3.93390291      -4.51743524
O       -2.53296411       2.95784041      -4.36428742
C       -2.24520582       5.16341103      -5.16651667
S       -1.50024020       6.68147038      -4.83401046
C       -2.55112030       7.52445610      -5.88207178
C       -3.47145583       6.68721271      -6.46800914
C       -3.29503020       5.34145051      -6.04734567
Br      -4.43996666       3.99745511      -6.73348447
H        3.71823471       1.30882827      -0.77912973
H        4.87383322       2.93253630      -2.49716465
H       -0.68969721       1.97045132      -3.11780888
H        0.28912296       4.65067653      -4.27632575
H       -2.44914592       8.59329672      -6.01476074
H       -4.22967167       7.03140427      -7.16108968
C       -1.79550387      -1.79550387      -1.79550387
C       -1.76675410      -1.62908416      -3.20470254
C       -2.62374990      -2.50286890      -3.83001667
S       -3.44014790      -3.50527142      -2.71660440
C       -2.67161655      -2.77120271      -1.34759246
C       -2.93207141      -3.19355371      -0.00480605
C       -4.06386749      -3.80800406       0.37675364
C       -4.26288684      -4.20241102       1.81040849
O       -3.31940693      -4.06002326       2.59026648
C       -5.54765900      -4.76136645       2.22430356
S       -7.00459866      -4.39184479       1.38120280
C       -7.95698092      -5.33575671       2.43733005
C       -7.20187206      -5.91310395       3.43121000
C       -5.82778565      -5.57305144       3.30707111
Br      -4.58448883      -6.26430398       4.55781989
H       -1.15495297      -0.91239448      -3.73884526
H       -2.80808706      -2.60456258      -4.89088454
H       -2.17110239      -2.96907621       0.74161562
H       -4.85631712      -4.03887781      -0.32093031
H       -9.02475230      -5.41823398       2.28407475
H       -7.62229377      -6.54490725       4.20437874
C       -1.79550387       1.79550387       1.79550387
C       -3.17693042       1.92629608       1.49731429
C       -3.80616868       2.75808560       2.39238118
S       -2.73015514       3.36025394       3.57161465
C       -1.37038980       2.52722983       2.89279209
C       -0.05942558       2.60902577       3.46197982
C        0.36051337       3.63420370       4.22142758
C        1.75864610       3.64845966       4.76507581
O        2.45828127       2.64754230       4.59990269
C        2.23043550       4.82698931       5.48816807
S        1.56794291       6.39030233       5.19288123
C        2.60577465       7.13841927       6.32276296
C        3.46134606       6.23561444       6.90949764
C        3.24593476       4.91878164       6.42091909
Br       4.29911381       3.49568011       7.09440663
H       -3.68943328       1.44119216       0.67556727
H       -4.85023776       3.03955672       2.41373969
H        0.63236431       1.79988922       3.23103808
H       -0.28074318       4.46895293       4.46642913
H        2.54438423       8.20401716       6.49927860
H        4.20154852       6.51461868       7.64975211
C        1.79550387      -1.79550387       1.79550387
C        1.48637769      -1.94112586       3.17303724
C        2.38739744      -2.76484344       3.80439459
S        3.58034210      -3.34841971       2.73326191
C        2.92398291      -2.48493579       1.38149303
C        3.49883547      -2.55905035       0.07254536
C        4.78445878      -2.87074617      -0.16008704
C        5.31015732      -2.90934149      -1.56460945
O        4.50898523      -2.77082430      -2.49064582
C        6.73663903      -3.13409102      -1.78600817
S        7.91115435      -2.70438565      -0.60029936
C        9.21234040      -3.22021783      -1.57715065
C        8.78312011      -3.69502487      -2.79437898
C        7.36805541      -3.63448628      -2.90877572
Br       6.53869183      -4.24921677      -4.49693567
H        0.65216536      -1.47292461       3.68110274
H        2.40109764      -3.05669906       4.84573748
H        2.84975874      -2.31689535      -0.76809110
H        5.47366883      -3.10315875       0.63929766
H       10.22959234      -3.14579637      -1.21647718
H        9.45698492      -4.06405201      -3.55821464
C       -0.00445707       0.01189536      -1.78238275
H       -0.66409135       0.67374010      -2.43557963
H        0.65740317      -0.63156657      -2.45157240
C       -0.90989263      -0.90692880      -0.91072765
C        0.90977584       0.90977584      -0.90977584
C       -0.00465871       1.77757030       0.00794375
H       -0.66225468       2.44313916      -0.64384735
H        0.64322798       2.43503045       0.67728295
C       -1.78241447       0.00034974      -0.00472694
H       -2.45427497      -0.65498947       0.64260836
H       -2.43311707       0.67328779      -0.65473579
C       -0.91132561       0.90220522       0.91563759
C       -0.01476271      -0.02253852       1.78660255
H       -0.67934791      -0.69751639       2.42135241
H        0.63392994       0.61504881       2.47327442
C        0.01484550      -1.77751727      -0.01636693
H        0.67870853      -2.42144646      -0.68295456
H       -0.62264859      -2.45592969       0.64226336
C        1.78714474       0.01002794       0.00389507
H        2.44202412       0.67113390       0.66197326
H        2.45385902      -0.65136977      -0.64189061
C        0.91606151      -0.90478549       0.90901405
