193
Properties=species:S:1:pos:R:3 pbc="F F F"
C        0.00000000       0.00000000       0.00000000
N        0.59706435       0.47886145      -6.11332064
C        0.77702862       1.53602265      -5.69517343
C        0.99686143       2.82738297      -5.18439163
C        1.83294939       3.60684552      -5.92505469
N        2.37991303       3.14653556      -7.12022889
N        2.15016597       4.89424860      -5.50492209
C        1.46889936       5.47072838      -4.44757018
C        0.61496067       4.77832292      -3.66508836
C       -0.27450806       5.44078841      -2.66981316
O       -0.58497224       6.62002784      -2.67500682
O       -0.77851605       4.52005398      -1.81136087
C       -1.73772869       5.02784199      -0.88071668
C        0.45571501       3.27440904      -3.85425196
H       -0.62393853       3.06399366      -3.88156810
C        1.09417300       2.46277917      -2.72016924
C        0.30201729       1.62592188      -1.91400415
C        0.88177413       0.88177413      -0.88177413
C        2.25379720       0.93981699      -0.64411280
C        3.05259362       1.75676245      -1.44075375
C        2.47277109       2.50929139      -2.45932390
F        3.27336114       3.28472888      -3.20189431
S        1.90222983       7.15341423      -4.28361992
C        3.01729747       7.07379235      -5.60801213
C        3.69861525       8.13331867      -6.07261162
C        4.62024834       8.10157848      -7.21811909
C        4.13068583       8.21622950      -8.52661023
C        5.01144792       8.14102429      -9.61020699
C        6.37929662       7.95579904      -9.40801163
C        6.87211531       7.84277586      -8.10798273
C        5.99457329       7.91503005      -7.02678922
F        6.49192498       7.79628494      -5.78655698
C        3.07920156       5.69862004      -6.16914588
O        3.82928456       5.34872669      -7.07119682
H        2.56527882       2.14797163      -7.18479926
H        3.19890276       3.69498663      -7.41125023
H       -1.97075462       4.22972571      -0.17057490
H       -2.65709477       5.30337840      -1.40675859
H       -1.33477080       5.88005227      -0.32542116
H       -0.77167721       1.56228437      -2.08044411
H        2.70726125       0.35682837       0.15347492
H        4.12476114       1.81283853      -1.27579017
H        3.59671033       9.10759044      -5.60226840
H        3.06532612       8.34352746      -8.70301618
H        7.06337371       7.89148169     -10.25063579
H        7.93190606       7.68964494      -7.92973974
C        4.50134937       8.25026072     -10.95239434
C        4.07414183       8.34174622     -12.07647624
Br       3.38338338       8.48967054     -13.89402160
N       -4.40395829       1.31703485      -4.10232299
C       -3.88325947       0.36761679      -4.49258203
C       -3.24720717      -0.79213141      -4.96929745
C       -4.03698108      -1.62319097      -5.70467756
N       -5.36214845      -1.29945489      -5.98507414
N       -3.52746584      -2.81668654      -6.20518428
C       -2.17043010      -3.07831145      -6.13845638
C       -1.31149477      -2.30558214      -5.44129504
C        0.16712940      -2.46022982      -5.54299310
O        0.75816819      -3.01305340      -6.45517721
O        0.77442187      -1.80336980      -4.52395088
C        2.20272561      -1.78830499      -4.58525060
C       -1.83806630      -1.15615696      -4.59015275
H       -1.22494673      -0.27288475      -4.82379175
C       -1.74887400      -1.44231354      -3.08593388
C       -0.96203850      -0.62576437      -2.25414045
C       -0.88177413      -0.88177413      -0.88177413
C       -1.59204310      -1.93573486      -0.30994902
C       -2.38332260      -2.74704746      -1.11973976
C       -2.45142331      -2.50099083      -2.48897223
F       -3.22076414      -3.30455397      -3.23466622
S       -1.77971282      -4.52275053      -7.03680062
C       -3.43565249      -4.79146021      -7.47198925
C       -3.84298766      -5.79082328      -8.27073460
C       -5.23505670      -6.01812648      -8.68676275
C       -5.77229850      -5.32248480      -9.77874226
C       -7.10999068      -5.51423822     -10.13845031
C       -7.92279224      -6.39539261      -9.42492245
C       -7.39290461      -7.09149797      -8.33847132
C       -6.05992998      -6.89922500      -7.97723758
F       -5.57573519      -7.57479062      -6.92424109
C       -4.31715967      -3.75287976      -6.87692805
O       -5.53739552      -3.73727897      -6.97453358
H       -5.85933529      -0.75540801      -5.28330641
H       -5.91064953      -2.11842023      -6.27606986
H        2.57340449      -1.34683641      -3.65611408
H        2.53287573      -1.16430591      -5.42161204
H        2.60387037      -2.80246968      -4.67210334
H       -0.39892615       0.20435796      -2.67648306
H       -1.53626004      -2.13210367       0.75774901
H       -2.94896907      -3.57071964      -0.69370114
H       -3.13101047      -6.51122872      -8.66432998
H       -5.15781758      -4.61885841     -10.33519375
H       -8.96441687      -6.54014984      -9.70092448
H       -8.01111459      -7.77513928      -7.76503687
C       -7.65869991      -4.78982787     -11.25547664
C       -8.11824390      -4.18313421     -12.19098619
Br      -8.86128765      -3.20216186     -13.70362601
N        0.36075097       1.61547195       5.93452546
C       -0.10050229       2.51824255       5.38947987
C       -0.66393969       3.62100921       4.72368713
C       -1.50455322       4.38292411       5.47737227
N       -1.73504777       4.09197666       6.81965305
N       -2.14571133       5.48400331       4.91962203
C       -1.78627617       5.93795440       3.66296735
C       -0.95340314       5.25439580       2.85057301
C       -0.40041432       5.83921196       1.59646724
O       -0.34232855       7.02956094       1.33817293
O        0.12915241       4.86073723       0.82131398
C        0.79206102       5.32152065      -0.35862966
C       -0.45916692       3.87046197       3.25474712
H        0.62939312       3.85595368       3.09506267
C       -1.09993620       2.74723291       2.42995230
C       -0.30097526       1.90911083       1.63185722
C       -0.88177413       0.88177413       0.88177413
C       -2.25648680       0.65674301       0.92449718
C       -3.05937356       1.47259194       1.71814433
C       -2.48254355       2.50521486       2.45362796
F       -3.28778945       3.26964883       3.20254605
S       -2.57714993       7.45300803       3.30910602
C       -3.41155211       7.45941050       4.82813934
C       -4.20718334       8.46081974       5.23654246
C       -4.89522486       8.50939386       6.53532720
C       -4.22539632       8.97136555       7.67676368
C       -4.87559503       8.97224921       8.91483496
C       -6.19034473       8.52070382       9.03205874
C       -6.86221413       8.06148733       7.89917244
C       -6.21410696       8.05770737       6.66457823
F       -6.87905165       7.60448279       5.59123247
C       -3.09397224       6.23850821       5.61448703
O       -3.59253887       5.95945197       6.69721723
H       -1.69782513       3.11128387       7.08894072
H       -2.58785408       4.54179881       7.17548674
H        1.06034063       4.44582952      -0.95594289
H        1.71075886       5.85070060      -0.08689951
H        0.13471143       5.96083475      -0.95542069
H        0.77525545       2.06364090       1.58266581
H       -2.70891628      -0.14570297       0.34740139
H       -4.13233028       1.31133443       1.76972513
H       -4.38854397       9.32067611       4.59734909
H       -3.19470773       9.31058522       7.60657680
H       -6.69396307       8.51590351       9.99562461
H       -7.88254248       7.69793106       7.97081720
C       -4.17915645       9.43939388      10.08545409
C       -3.59588913       9.83062755      11.06584761
Br      -2.65279521      10.46321929      12.65106102
N        4.68087955       1.28568838       3.79405527
C        4.13405174       0.38704213       4.26121509
C        3.46608197      -0.71068649       4.83186757
C        4.25080096      -1.54441925       5.56962939
N        5.60403076      -1.27880978       5.76383694
N        3.70857264      -2.68141896       6.15934506
C        2.33829088      -2.87241670       6.17649034
C        1.48367788      -2.09115659       5.48353748
C        0.00672830      -2.16027240       5.66909282
O       -0.56171783      -2.63287474       6.63890551
O       -0.62027053      -1.52465347       4.64851586
C       -2.04052384      -1.42931742       4.78203639
C        2.02171153      -1.01699761       4.54566687
H        1.46818850      -0.09107660       4.76235813
C        1.83682754      -1.37463637       3.06565751
C        1.04908587      -0.56047395       2.23238349
C        0.88177413      -0.88177413       0.88177413
C        1.50515627      -2.00049175       0.33207896
C        2.29640917      -2.81079996       1.14290069
C        2.45091159      -2.49892869       2.49154610
F        3.21722078      -3.30360877       3.23915478
S        1.92316417      -4.24569131       7.17040849
C        3.58424648      -4.58082049       7.53403499
C        3.98238628      -5.55847856       8.36368070
C        5.38141767      -5.83904133       8.71948692
C        6.01182105      -5.11839124       9.74331326
C        7.35540565      -5.36345156      10.04382200
C        8.08223631      -6.32264525       9.33822574
C        7.45944162      -7.04387173       8.31956055
C        6.12050567      -6.79862639       8.01726050
F        5.54613721      -7.50012430       7.02850540
C        4.48438509      -3.62325067       6.83933173
O        5.70730566      -3.66861996       6.87328245
H        6.08980453      -0.79910445       5.00914074
H        6.12475669      -2.11022201       6.07016092
H       -2.43774801      -1.01666811       3.85062590
H       -2.29258665      -0.74634701       5.59928187
H       -2.48784108      -2.41454053       4.94400319
H        0.55290276       0.31941453       2.63756303
H        1.38177587      -2.24802412      -0.71918529
H        2.79525027      -3.68458256       0.73355702
H        3.25672914      -6.21824238       8.83159765
H        5.46517462      -4.35499850      10.29169664
H        9.12846158      -6.50913353       9.56789608
H        8.00991347      -7.78840680       7.75297046
C        8.00007239      -4.61344855      11.09048349
C        8.53998078      -3.98532102      11.96706249
Br       9.41296698      -2.96969194      13.38441659
