145
Properties=species:S:1:pos:R:3 pbc="F F F"
C        0.00000000       0.00000000       0.00000000
C        9.06542586       8.21697091      -5.12563928
O        8.47673660       8.31688503      -6.41776378
C        7.61432043       7.31211350      -6.78128118
C        7.21957602       6.24251149      -5.97601578
C        6.33800113       5.27370224      -6.47616214
C        5.93887744       4.15155565      -5.62838979
C        4.84773349       4.13281286      -4.84988134
C        3.81461022       5.17062572      -4.65656620
O        3.71865503       6.25531067      -5.19501449
N        2.94513263       4.62453616      -3.73705379
N        3.28894147       3.30906653      -3.39533739
C        2.49642760       2.50118528      -2.53678642
C        2.84822397       1.17303423      -2.24945581
C        2.04853590       0.36655438      -1.42934233
C        0.88079880       0.88079880      -0.88079880
C        0.51364838       2.19683211      -1.13655190
C        1.31835955       3.00109353      -1.95550175
C        4.48811619       2.94664496      -4.02920878
O        5.14420816       1.92091730      -3.98194567
C        5.85033564       5.37496291      -7.78406336
C        6.23813352       6.44579041      -8.59019552
Br       5.55997138       6.54395158     -10.35737442
C        7.11270592       7.40876808      -8.08763162
O        7.50254668       8.46962820      -8.86612027
H        9.76281062       9.05220048      -5.01082216
H        9.63873869       7.28963881      -5.02114658
H        8.30623311       8.30442516      -4.34161672
H        7.57992731       6.14080232      -4.95753387
H        6.59672784       3.28632332      -5.66694782
H        2.04838985       5.04294433      -3.53984529
H        3.74720964       0.71851524      -2.65646765
H        2.35047874      -0.65979795      -1.23484466
H       -0.39655952       2.60921031      -0.70791101
H        0.98853925       4.02171959      -2.11597983
H        5.16739652       4.62345408      -8.17272110
H        8.07676053       9.01346467      -8.29319146
C       -6.35868103      -6.18769462      -9.86166040
O       -7.28840100      -6.88403535      -9.03894905
C       -6.94401758      -7.04429036      -7.71940717
C       -5.79933711      -6.53328010      -7.10548608
C       -5.56003605      -6.78141514      -5.74641432
C       -4.35290414      -6.25068392      -5.11523482
C       -4.27844346      -5.07325574      -4.47872848
C       -5.33028407      -4.06185572      -4.24966235
O       -6.50314754      -4.10245301      -4.56337964
N       -4.69304202      -3.05122021      -3.56246035
N       -3.35981416      -3.36752881      -3.26600241
C       -2.52101667      -2.52713832      -2.48624432
C       -1.20319044      -2.89492362      -2.17259995
C       -0.38756025      -2.08106541      -1.37580696
C       -0.88079880      -0.88079880      -0.88079880
C       -2.17749460      -0.48370248      -1.18583530
C       -2.98918282      -1.29991473      -1.98585728
C       -3.02182679      -4.60454211      -3.83760104
O       -1.97371161      -5.22596497      -3.84739455
C       -6.46733278      -7.54196995      -5.00005919
C       -7.61561221      -8.04970919      -5.60879806
Br      -8.81669510      -9.07952185      -4.56508043
C       -7.85120718      -7.79786318      -6.96003525
O       -8.97665249      -8.28772000      -7.57392266
H       -6.74759207      -6.19391446     -10.88432673
H       -5.38549956      -6.69000553      -9.87401898
H       -6.26218976      -5.14364547      -9.54643977
H       -5.08064980      -5.93818451      -7.65942920
H       -3.47650476      -6.89124113      -5.18225309
H       -5.20599272      -2.30088514      -3.12430162
H       -0.76881903      -3.82510964      -2.52826386
H        0.62604197      -2.40275295      -1.14881447
H       -2.57061386       0.45632963      -0.80627757
H       -3.98941635      -0.93851474      -2.19830759
H       -6.28178055      -7.73546617      -3.94632498
H       -8.93561313      -7.95620033      -8.49160319
C       -8.54127278       8.78754351       5.07921977
O       -8.16316883       8.60845035       6.43976622
C       -7.52065981       7.43562475       6.75143054
C       -7.15328153       6.43917064       5.84565111
C       -6.50932441       5.27924191       6.29929920
C       -6.13807968       4.23669800       5.34404519
C       -4.94802565       4.14920761       4.73319443
C       -3.76240925       5.02125915       4.85813374
O       -3.60490810       5.98968758       5.57438451
N       -2.83956090       4.47461233       3.99254935
N       -3.30348622       3.29372303       3.39613613
C       -2.50234691       2.49543225       2.53662015
C       -2.98471887       1.29585799       1.99013716
C       -2.18264792       0.49239210       1.16939260
C       -0.88079880       0.88079880       0.88079880
C       -0.37997356       2.07044769       1.39661113
C       -1.18707060       2.87272913       2.21515510
C       -4.62873580       3.04679437       3.78843976
O       -5.40518650       2.15866594       3.48321869
C       -6.23227078       5.11574004       7.66135110
C       -6.59283484       6.11213656       8.56914806
Br      -6.20509589       5.85032437      10.40587712
C       -7.23037381       7.26556542       8.11316639
O       -7.58981648       8.25642500       8.99205367
H       -9.08687979       9.73309520       5.00585827
H       -9.21378549       7.99000812       4.74573048
H       -7.65967280       8.85869771       4.43390448
H       -7.35327447       6.54100449       4.78398455
H       -6.90781285       3.49360656       5.14857957
H       -1.87309418       4.76451794       3.99356735
H       -3.99265284       0.94172147       2.18781822
H       -2.58928620      -0.43354205       0.76978130
H        0.63655824       2.38462025       1.17249979
H       -0.74845619       3.79327836       2.58450412
H       -5.73374452       4.21602946       8.01379773
H       -7.98112467       8.96133473       8.44095726
C        5.45342643      -7.35849261       9.59611701
O        6.73078938      -7.49706740       8.98352863
C        6.78921137      -7.29134425       7.62715949
C        5.72499854      -6.89992852       6.81317623
C        5.91786920      -6.73587785       5.43411846
C        4.79435280      -6.33590808       4.58856200
C        4.49216031      -5.06968834       4.26857904
C        5.17361884      -3.81645895       4.65172435
O        6.18107634      -3.67280339       5.31510046
N        4.42528121      -2.82206065       4.05938071
N        3.38509196      -3.33589941       3.27235401
C        2.53146251      -2.51512866       2.48780813
C        1.52647462      -3.06653027       1.67770913
C        0.70686449      -2.25873213       0.87883600
C        0.88079880      -0.88079880       0.88079880
C        1.85892262      -0.30493491       1.68317485
C        2.67493050      -1.11690141       2.48312293
C        3.34636903      -4.73501010       3.38259081
O        2.59276970      -5.55918508       2.89511635
C        7.17745893      -6.96366688       4.86823611
C        8.24513179      -7.34951626       5.67947140
Br       9.93366090      -7.65366214       4.87397434
C        8.04955385      -7.50849420       7.05105757
O        9.08924570      -7.88526015       7.86378930
H        5.56249712      -7.60735745      10.65597869
H        4.72827139      -8.05668229       9.16457039
H        5.09728905      -6.32531067       9.52967527
H        4.73870839      -6.71390877       7.22564635
H        4.18986808      -7.15481207       4.20531883
H        4.75188023      -1.86861095       4.01068829
H        1.35090090      -4.13780951       1.63348212
H       -0.05676687      -2.72294743       0.25934489
H        1.99940042       0.77321522       1.69437661
H        3.41678534      -0.61489505       3.09455828
H        7.32735108      -6.83748785       3.79873277
H        8.72004613      -7.89552739       8.76784313
