194
Properties=species:S:1:pos:R:3 pbc="F F F"
C        5.01681317       5.96956845      -7.00201668
C        4.42040589       5.70828698      -5.99102831
C        3.67809660       5.37131079      -4.76902837
O        4.19793172       4.14694557      -4.24969518
C        3.37787785       3.42034210      -3.42867569
C        2.34297513       3.97719084      -2.67041103
C        1.54852657       3.16256471      -1.85694529
C        1.79154976       1.79154976      -1.79154976
C        2.83683783       1.22501086      -2.51431687
C        3.63637400       2.04278845      -3.32306619
C        4.77908887       1.45408629      -4.05399711
N        5.13067683       0.21789588      -3.89025767
N        6.24014292      -0.16688479      -4.58075268
C        6.73058984      -1.46315429      -4.44024987
O        6.19699608      -2.34416259      -3.77069930
C        8.02309692      -1.68714924      -5.24904581
H        7.93391770      -1.17869671      -6.21911149
C        9.18540686      -1.04039033      -4.49564513
O        8.36490149      -3.05773027      -5.43546903
C        7.89275620      -3.65502229      -6.57516863
C        6.63083150      -3.38709591      -7.11711617
C        6.20151295      -4.04577367      -8.27269160
C        7.02078672      -4.98976161      -8.88681610
C        8.26927480      -5.28445736      -8.34108051
C        8.70062784      -4.62420061      -7.18644917
H        5.54085260       6.19408876      -7.90221419
H        2.61453910       5.27694235      -5.02116775
H        3.80831442       6.16229821      -4.02220719
H        2.14033094       5.04395102      -2.67598037
H        0.74621459       3.60826616      -1.27314529
H        3.03581883       0.15698015      -2.44809125
H        5.33976374       2.11768225      -4.73570973
H        6.73045929       0.51695750      -5.14644067
H        9.31965112      -1.50789206      -3.51323652
H        9.02690200       0.03169883      -4.34202561
H       10.12328016      -1.17865540      -5.04462810
H        5.94181073      -2.69590172      -6.64263997
H        5.21635155      -3.83266358      -8.68119933
H        6.68076091      -5.50712312      -9.78030313
H        8.89698925      -6.03307345      -8.81724045
C        9.99995421      -4.95878935      -6.66357119
C       11.08814003      -5.23900743      -6.22566088
Br      12.84764448      -5.69209635      -5.51759695
C       -4.98150051      -6.04119513      -6.96570264
C       -4.41207159      -5.76426052      -5.94338907
C       -3.70162271      -5.40915000      -4.70766305
O       -4.19422768      -4.14891188      -4.25143292
C       -3.37763806      -3.42215137      -3.42710621
C       -2.39136620      -3.98708289      -2.61212791
C       -1.59685030      -3.17178500      -1.79940127
C       -1.79154976      -1.79154976      -1.79154976
C       -2.78909452      -1.21527008      -2.57180096
C       -3.58897406      -2.03336209      -3.37989248
C       -4.68271634      -1.43179838      -4.17265755
N       -4.99426974      -0.17875898      -4.06580166
N       -6.06372295       0.21945563      -4.80974350
C       -6.51092678       1.53655916      -4.73331780
O       -5.96939461       2.42210568      -4.07624385
C       -7.76489614       1.77633538      -5.59643272
H       -7.66015179       1.22978115      -6.54396185
C       -8.97610591       1.19922131      -4.86377706
O       -8.04934909       3.15039153      -5.84368269
C       -7.51554526       3.68835836      -6.98571564
C       -6.24590983       3.35621191      -7.47115384
C       -5.75206180       3.95641810      -8.63278719
C       -6.51387852       4.90564169      -9.30960439
C       -7.76924635       5.26418601      -8.82083761
C       -8.26515076       4.66244026      -7.66016590
H       -5.48122883      -6.27991196      -7.87601476
H       -2.62705868      -5.36181279      -4.92377773
H       -3.88714423      -6.16708615      -3.93858945
H       -2.22794367      -5.05983379      -2.57248488
H       -0.83261024      -3.62388300      -1.17113281
H       -2.95095945      -0.13915362      -2.55077715
H       -5.24288373      -2.09970308      -4.85056890
H       -6.55847421      -0.46690134      -5.36848191
H       -9.12779674       1.70692653      -3.90412536
H       -8.86259673       0.12855405      -4.66658376
H       -9.88824793       1.35036026      -5.45136518
H       -5.59995385       2.65893881      -6.94753394
H       -4.76154178       3.69371290      -8.99705842
H       -6.12367288       5.37749668     -10.20776472
H       -8.35180852       6.01657402      -9.34592177
C       -9.56901723       5.06178654      -7.19750535
C      -10.66100540       5.39623905      -6.81002714
Br     -12.42665791       5.93702047      -6.18350765
C       -6.74204203       6.37716886       4.86918740
C       -6.22833379       5.33622834       4.55515904
C       -5.59628930       4.07429242       4.14785404
O       -4.18002256       4.25618157       4.15836835
C       -3.43702337       3.40725421       3.38261806
C       -3.85264020       2.12363666       3.01430014
C       -3.03249924       1.31947626       2.21606107
C       -1.79154976       1.79154976       1.79154976
C       -1.34805725       3.05352724       2.17458107
C       -2.16706241       3.85522523       2.97994099
C       -1.67976520       5.17651811       3.43088896
N       -0.47171045       5.57765407       3.18946586
N       -0.14449283       6.78849087       3.72102711
C        1.14416192       7.29234767       3.55949967
O        2.02994096       6.75035246       2.90312128
C        1.33728894       8.63921438       4.28306804
H        0.43189558       9.24906321       4.15716485
C        1.50485270       8.36747077       5.77804359
O        2.48895029       9.36654492       3.86504562
C        2.30574380      10.26888753       2.84975881
C        1.44918966      10.04355897       1.76648245
C        1.32228558      10.99768026       0.75303620
C        2.06211513      12.17648481       0.80347154
C        2.93862001      12.40038461       1.86413335
C        3.06438097      11.44753025       2.87972712
H       -7.19481869       7.30317651       5.13916035
H       -5.95626522       3.81085281       3.14553117
H       -5.86149151       3.27858225       4.85274607
H       -4.80092822       1.71235842       3.34697570
H       -3.36822781       0.32349781       1.93590042
H       -0.37124780       3.41315242       1.85649000
H       -2.38281137       5.80666632       4.00367802
H       -0.83082186       7.28318649       4.27984911
H        2.39563158       7.75630767       5.96431949
H        0.64037939       7.84334639       6.19765943
H        1.64270885       9.30606419       6.32589751
H        0.89238808       9.11786763       1.66306942
H        0.65718482      10.80849181      -0.08641968
H        1.96826344      12.91282896       0.00937539
H        3.52383888      13.31584786       1.88914728
C        3.97848016      11.72631642       3.95689978
C        4.74403823      11.95979983       4.85903188
Br       5.98188088      12.33732277       6.31770320
C        6.47193144      -6.66156017       4.85490668
C        6.07011631      -5.60504274       4.44456212
C        5.56936353      -4.32652542       3.92254682
O        4.16510204      -4.25737640       4.17209403
C        3.43199048      -3.41601487       3.37889030
C        3.96153392      -2.29171406       2.73732902
C        3.14283248      -1.48392281       1.94128128
C        1.79154976      -1.79154976       1.79154976
C        1.24057559      -2.88779708       2.44779289
C        2.05976286      -3.69194859       3.25051718
C        1.46915610      -4.82842774       3.98958843
N        0.19196441      -5.04577666       4.00108932
N       -0.21258813      -6.09050919       4.77608976
C       -1.56955008      -6.38224779       4.89498771
O       -2.46614326      -5.79762881       4.29204723
C       -1.83028758      -7.55445902       5.86082205
H       -1.05974328      -8.32337372       5.71070205
C       -1.69524189      -7.04140911       7.29449444
O       -3.13095157      -8.12517341       5.74841841
C       -3.26041888      -9.18469606       4.88862536
C       -2.58031081      -9.27226287       3.66889969
C       -2.77189594     -10.37221541       2.82811141
C       -3.65676059     -11.38506009       3.18954171
C       -4.35999832     -11.29597312       4.38992315
C       -4.16711465     -10.19713687       5.23285419
H        6.82365757      -7.60207412       5.21142386
H        5.78541023      -4.27927362       2.84796536
H        6.06626813      -3.49390991       4.43264180
H        5.00298300      -2.00620078       2.85107855
H        3.56758523      -0.61302438       1.44701643
H        0.18144976      -3.11593286       2.34350761
H        2.16039098      -5.47959301       4.55317173
H        0.47983228      -6.60891055       5.30511462
H       -2.44092587      -6.26487881       7.50104264
H       -0.70383672      -6.61874318       7.48571997
H       -1.87259039      -7.85132243       8.01052081
H       -1.92001369      -8.48208446       3.32647820
H       -2.24142273     -10.42610752       1.88020251
H       -3.81066513     -12.23500001       2.52960604
H       -5.06002026     -12.08278582       4.65839070
C       -4.91217016     -10.15258641       6.46431980
C       -5.53615415     -10.11527540       7.49567224
Br      -6.54508349     -10.05494665       9.16328192
C       -0.00445707       0.01189536      -1.78238275
H       -0.66409135       0.67374010      -2.43557963
H        0.65740317      -0.63156657      -2.45157240
C       -0.90989263      -0.90692880      -0.91072765
C        0.90977584       0.90977584      -0.90977584
C       -0.00465871       1.77757030       0.00794375
H       -0.66225468       2.44313916      -0.64384735
H        0.64322798       2.43503045       0.67728295
C       -1.78241447       0.00034974      -0.00472694
H       -2.45427497      -0.65498947       0.64260836
H       -2.43311707       0.67328779      -0.65473579
C       -0.91132561       0.90220522       0.91563759
C       -0.01476271      -0.02253852       1.78660255
H       -0.67934791      -0.69751639       2.42135241
H        0.63392994       0.61504881       2.47327442
C        0.01484550      -1.77751727      -0.01636693
H        0.67870853      -2.42144646      -0.68295456
H       -0.62264859      -2.45592969       0.64226336
C        1.78714474       0.01002794       0.00389507
H        2.44202412       0.67113390       0.66197326
H        2.45385902      -0.65136977      -0.64189061
C        0.91606151      -0.90478549       0.90901405
