165
Properties=species:S:1:pos:R:3 pbc="F F F"
C        0.00000000       0.00000000       0.00000000
C        4.10690914       5.05966442      -6.09211265
C        3.51050187       4.79838295      -5.08112428
C        2.76819258       4.46140677      -3.85912435
O        3.28802770       3.23704154      -3.33979116
C        2.46797383       2.51043808      -2.51877166
C        1.43307111       3.06728681      -1.76050701
C        0.63862254       2.25266069      -0.94704126
C        0.88164574       0.88164574      -0.88164574
C        1.92693380       0.31510684      -1.60441285
C        2.72646997       1.13288442      -2.41316217
C        3.86918484       0.54418226      -3.14409309
N        4.22077281      -0.69200815      -2.98035365
N        5.33023889      -1.07678881      -3.67084865
C        5.82068582      -2.37305831      -3.53034584
O        5.28709205      -3.25406662      -2.86079527
C        7.11319290      -2.59705327      -4.33914179
H        7.02401368      -2.08860073      -5.30920747
C        8.27550284      -1.95029436      -3.58574110
O        7.45499747      -3.96763429      -4.52556500
C        6.98285218      -4.56492632      -5.66526460
C        5.72092747      -4.29699994      -6.20721214
C        5.29160893      -4.95567769      -7.36278758
C        6.11088270      -5.89966564      -7.97691208
C        7.35937077      -6.19436138      -7.43117649
C        7.79072382      -5.53410463      -6.27654514
Br       9.50505138      -5.97556008      -5.58666141
H        4.63094858       5.28418473      -6.99231017
H        1.70463507       4.36703832      -4.11126373
H        2.89841040       5.25239419      -3.11230317
H        1.23042691       4.13404700      -1.76607635
H       -0.16368943       2.69836214      -0.36324126
H        2.12591481      -0.75292388      -1.53818722
H        4.42985971       1.20777823      -3.82580570
H        5.82055526      -0.39294652      -4.23653664
H        8.40974710      -2.41779609      -2.60333249
H        8.11699797      -0.87820520      -3.43212159
H        9.21337613      -2.08855943      -4.13472407
H        5.03190670      -3.60580575      -5.73273595
H        4.30644752      -4.74256760      -7.77129531
H        5.77085688      -6.41702714      -8.87039910
H        7.98708523      -6.94297747      -7.90733643
C       -3.94258787      -5.72770304      -5.58839531
C       -3.59173089      -5.26126308      -4.53701513
C       -3.14048667      -4.68474810      -3.26348893
O       -3.25375281      -3.26378092      -3.34732668
C       -2.47092171      -2.52530909      -2.50095276
C       -1.99014832      -2.99591789      -1.27479872
C       -1.19290333      -2.17625061      -0.46917056
C       -0.88164574      -0.88164574      -0.88164574
C       -1.37737159      -0.38566770      -2.08341420
C       -2.18161087      -1.20484694      -2.88605876
C       -2.75179743      -0.66610161      -4.13956116
N       -2.61589039       0.57873868      -4.47196660
N       -3.24858793       0.94555679      -5.62126760
C       -3.20437683       2.27175225      -6.04534877
O       -2.57044056       3.16382892      -5.48720907
C       -4.02896054       2.50065380      -7.32697467
H       -3.88741072       1.64672859      -8.00393828
C       -5.50956304       2.54818807      -6.94957461
O       -3.73587240       3.72221021      -7.99926598
C       -2.77486809       3.66663638      -8.97495875
C       -1.62629113       2.87332148      -8.87817003
C       -0.67424399       2.87698317      -9.90145799
C       -0.85206954       3.68537623     -11.02143583
C       -1.97930674       4.50000570     -11.11688484
C       -2.93350545       4.49514029     -10.09479917
Br      -4.45057265       5.62248150     -10.28806155
H       -4.24563293      -6.13780897      -6.52400157
H       -2.10160442      -4.99160894      -3.08972376
H       -3.77110542      -5.04764877      -2.44435356
H       -2.23279687      -3.98899758      -0.90875582
H       -0.82461680      -2.55497385       0.48167668
H       -1.14754157       0.63151733      -2.39515392
H       -3.32018453      -1.36491736      -4.77834175
H       -3.79489853       0.25569232      -6.12493917
H       -5.71019923       3.38336158      -6.26844585
H       -5.83642552       1.62542518      -6.45991402
H       -6.12782981       2.70798545      -7.83969643
H       -1.42466286       2.26692415      -8.00109819
H        0.21689423       2.25996348      -9.81203294
H       -0.10567138       3.69308713     -11.81164459
H       -2.10399488       5.13938986     -11.98683917
C       -5.61725486       5.70065655       3.94077481
C       -5.19512444       4.64449856       3.55038610
C       -4.67057687       3.36605847       3.05208836
O       -3.25788487       3.34760367       3.25937186
C       -2.52320226       2.50445739       2.46952392
C       -3.03645234       1.34493767       1.87947492
C       -2.21740354       0.53784789       1.08307306
C       -0.88164574       0.88164574       0.88164574
C       -0.34565652       2.01425322       1.48654375
C       -1.16487286       2.81790177       2.28974193
C       -0.58802975       3.99451308       2.97491736
N        0.68145766       4.25092900       2.93964697
N        1.07640287       5.33134201       3.66935959
C        2.42651847       5.66788193       3.73660989
O        3.32225442       5.09219249       3.12388263
C        2.67959462       6.87726694       4.65760909
H        1.88105044       7.61724971       4.50842114
C        2.60448345       6.40564983       6.10978321
O        3.95765155       7.48353091       4.48704882
C        4.02750096       8.51896221       3.59172921
C        3.30812980       8.54739132       2.39187816
C        3.43934595       9.62570365       1.51236111
C        4.30254425      10.67589650       1.81477690
C        5.04448129      10.64604548       2.99462169
C        4.91199806       9.56887615       3.87628624
Br       5.94543199       9.59116579       5.47041890
H       -5.98733871       6.64075675       4.27934802
H       -4.91767222       3.27849876       1.98676615
H       -5.12529707       2.53513175       3.60267894
H       -4.06446474       1.03154160       2.03454392
H       -2.62943911      -0.36069049       0.62916535
H        0.70210724       2.27116278       1.34212261
H       -1.28189471       4.64170508       3.53984386
H        0.38447292       5.84477517       4.20384313
H        3.38014975       5.65907466       6.31635859
H        1.63313782       5.95919214       6.34486004
H        2.77802514       7.24269279       6.79487313
H        2.66286526       7.72709090       2.09461126
H        2.87880632       9.63359177       0.58038978
H        4.40948330      11.50897137       1.12474078
H        5.72728510      11.46186963       3.21685965
C        5.19966566      -6.01750650       4.04151406
C        4.90648828      -4.98581561       3.49770521
C        4.53251946      -3.73866784       2.81753638
O        3.24106949      -3.34299715       3.28079375
C        2.51393044      -2.51563405       2.46761908
C        3.08302565      -1.64785908       1.52998020
C        2.26711340      -0.83585874       0.73535236
C        0.88164574      -0.88164574       0.88164574
C        0.29961491      -1.71551536       1.83132322
C        1.11797343      -2.52297961       2.63156352
C        0.50786636      -3.37358156       3.67601228
N       -0.75799348      -3.32027070       3.94684109
N       -1.16588369      -4.11436070       4.97582173
C       -2.49926251      -4.09837658       5.37885928
O       -3.38845423      -3.45310387       4.82917106
C       -2.75097652      -5.01260167       6.59365627
H       -2.16826792      -5.93679532       6.47609301
C       -2.24132838      -4.30376040       7.84851757
O       -4.12436252      -5.31612669       6.82116401
C       -4.60350972      -6.45630434       6.23039585
C       -4.21167595      -6.88534425       4.95747138
C       -4.75365514      -8.04861140       4.40376255
C       -5.70382346      -8.78354164       5.10841096
C       -6.12165673      -8.35157139       6.36627122
C       -5.57817578      -7.18928470       6.92205542
Br      -6.18419435      -6.65781876       8.64252829
H        5.45310316      -6.93617892       4.51816140
H        4.52925579      -3.91841741       1.73526393
H        5.25627150      -2.95132409       3.05551216
H        4.15864800      -1.56615689       1.40574537
H        2.72253437      -0.16618910       0.00919050
H       -0.78144533      -1.73668244       1.95594105
H        1.17977502      -4.04769987       4.23596875
H       -0.47750931      -4.66652661       5.47512808
H       -2.78725140      -3.36778908       8.01474582
H       -1.17500881      -4.06651801       7.77940516
H       -2.40259108      -4.92778506       8.73434679
H       -3.51170959      -6.31603725       4.35450925
H       -4.44489557      -8.36877881       3.41129199
H       -6.13036506      -9.68293539       4.67165852
H       -6.87447163      -8.92198469       6.90393112
