113
Properties=species:S:1:pos:R:3 pbc="F F F"
C        0.00000000       0.00000000       0.00000000
C        0.88147227       0.88147227      -0.88147227
C        2.21514747       0.54043848      -1.08606582
C        3.02538583       1.36256674      -1.87506052
C        2.50255387       2.50103588      -2.50401028
C        1.16457320       2.83467823      -2.27075260
C        0.35303950       2.03154618      -1.46238601
N        3.28912026       3.38463776      -3.26183469
C        4.01380172       2.98669908      -4.24650280
S        4.20613615       1.41913401      -4.95319208
C        5.66507724       1.84186356      -5.74197613
C        6.70184981       0.95508466      -6.23917576
H        7.47483787       1.40658209      -6.85318618
C        6.80469003      -0.41779851      -5.90107526
C        7.56080636      -1.41113289      -6.51305717
C        7.32881069      -2.62631136      -5.82091239
C        6.46116267      -2.31730143      -4.80455828
Br       5.79165395      -3.52186373      -3.54880654
O        6.15227053      -0.99932876      -4.83831798
C        5.69965669       3.32664659      -5.75125375
O        6.51897904       3.92625849      -6.42421015
N        4.79720476       3.86382074      -4.90201930
H        2.63953940      -0.35052224      -0.63121915
H        4.07388446       1.10167787      -1.99192912
H        0.75478029       3.74030914      -2.71041340
H       -0.68039304       2.31797042      -1.28794400
H        8.19712792      -1.27246270      -7.37687991
H        7.74341071      -3.59996133      -6.03966905
H        4.78535997       4.84506918      -4.68069604
C       -0.88147227      -0.88147227      -0.88147227
C       -2.24588902      -0.62288972      -0.97287303
C       -3.05383883      -1.44636549      -1.76280877
C       -2.50275720      -2.50094680      -2.50389604
C       -1.13251532      -2.75376152      -2.38372719
C       -0.32065070      -1.95038079      -1.57594019
N       -3.28087982      -3.38599167      -3.26872123
C       -4.09811653      -2.97615037      -4.17273670
S       -4.44310256      -1.38287201      -4.75248767
C       -5.92307789      -1.85473799      -5.47110106
C       -7.04874149      -1.01263628      -5.83473247
H       -7.83171849      -1.47614545      -6.42674219
C       -7.21786822       0.32418837      -5.39428693
C       -8.07935408       1.29978564      -5.88316219
C       -7.87974884       2.47994973      -5.12361261
C       -6.92384957       2.16664209      -4.19121203
Br      -6.24820623       3.32996478      -2.90035530
O       -6.53173210       0.87894481      -4.33847246
C       -5.86006735      -3.33438210      -5.58310758
O       -6.68354745      -3.94469465      -6.24120559
N       -4.86627987      -3.86128004      -4.83548488
H       -2.69496141       0.20381185      -0.42908675
H       -4.12291687      -1.25316870      -1.79140587
H       -0.69592981      -3.59710052      -2.91247250
H        0.73919250      -2.17386231      -1.49085156
H       -8.76464724       1.17380703      -6.71070492
H       -8.37219895       3.43414297      -5.24506245
H       -4.77401004      -4.85170283      -4.68541232
C       -0.88147227       0.88147227       0.88147227
C       -1.88015238       0.30259848       1.65890091
C       -2.70053789       1.11532476       2.44715044
C       -2.50159180       2.50176025       2.50424798
C       -1.50390402       3.06436007       1.70173994
C       -0.69471395       2.26147466       0.89078307
N       -3.33256966       3.36345165       3.23957140
C       -3.56270592       3.19150578       4.49279190
S       -2.95140440       2.01869733       5.60836050
C       -4.19551580       2.30504999       6.74835114
C       -4.64645146       1.43212780       7.81753098
H       -5.33979259       1.85986457       8.53494897
C       -4.30701076       0.05964603       7.92130998
C       -4.43828775      -0.78971052       9.01415340
C       -3.95580290      -2.06768507       8.63529388
C       -3.57363626      -1.94862312       7.32340638
Br      -2.85697575      -3.31465077       6.27627176
O       -3.79041018      -0.68546576       6.88631534
C       -4.78649569       3.61560508       6.37545626
O       -5.56140115       4.18468182       7.12336472
N       -4.41558717       4.00951394       5.13794368
H       -2.03942292      -0.77229891       1.65311229
H       -3.50008665       0.64996366       3.01744114
H       -1.36716768       4.14262996       1.69570519
H        0.06651387       2.72364943       0.26838582
H       -4.82557639      -0.50831173       9.98428046
H       -3.89620173      -2.95796299       9.24487968
H       -4.83578146       4.79861894       4.67672479
C        0.88147227      -0.88147227       0.88147227
C        2.17119725      -0.46835917       1.20209535
C        2.98368207      -1.28892712       1.99040391
C        2.50235008      -2.50114616       2.50410379
C        1.20971151      -2.90515735       2.15513518
C        0.39856339      -2.10221005       1.34619824
N        3.29768833      -3.38225620       3.25564818
C        3.92568213      -3.00800943       4.31331205
S        3.95938255      -1.48514731       5.13393239
C        5.38924878      -1.86529329       5.99437486
C        6.32547549      -0.94935225       6.62128250
H        7.08620721      -1.39110378       7.25729514
C        6.35296244       0.44781489       6.38281923
C        6.99471877       1.44312702       7.11113888
C        6.72351948       2.68626658       6.48615883
C        5.94902886       2.39332231       5.39271296
Br       5.28038754       3.63688313       4.17509234
O        5.73269130       1.05873706       5.31730551
C        5.52819853      -3.34146292       5.90789557
O        6.34163843      -3.93174328       6.59606598
N        4.72417678      -3.87563384       4.96323418
H        2.56056948       0.47867836       0.83834518
H        4.00104713      -0.96822322       2.19822109
H        0.83691247      -3.86475549       2.50383487
H       -0.59819185      -2.44325603       1.08045719
H        7.58075811       1.28600521       8.00679223
H        7.05275685       3.66725518       6.79761676
H        4.79650788      -4.83737644       4.67724087
