121
Properties=species:S:1:pos:R:3 pbc="F F F"
C        0.00000000       0.00000000       0.00000000
C        0.88147227       0.88147227      -0.88147227
C        2.21514747       0.54043848      -1.08606582
C        3.02538583       1.36256674      -1.87506052
C        2.50255387       2.50103588      -2.50401028
C        1.16457320       2.83467823      -2.27075260
C        0.35303950       2.03154618      -1.46238601
N        3.28912026       3.38463776      -3.26183469
C        4.01380172       2.98669908      -4.24650280
S        4.20613615       1.41913401      -4.95319208
C        5.66507724       1.84186356      -5.74197613
C        6.70184981       0.95508466      -6.23917576
H        7.47483787       1.40658209      -6.85318618
C        6.80469003      -0.41779851      -5.90107526
C        7.56080636      -1.41113289      -6.51305717
C        7.32881069      -2.62631136      -5.82091239
C        6.46116267      -2.31730143      -4.80455828
O        6.15227053      -0.99932876      -4.83831798
C        5.69965669       3.32664659      -5.75125375
O        6.51897904       3.92625849      -6.42421015
N        4.79720476       3.86382074      -4.90201930
H        2.63953940      -0.35052224      -0.63121915
H        4.07388446       1.10167787      -1.99192912
H        0.75478029       3.74030914      -2.71041340
H       -0.68039304       2.31797042      -1.28794400
H        8.19712792      -1.27246270      -7.37687991
H        7.74341071      -3.59996133      -6.03966905
H        4.78535997       4.84506918      -4.68069604
C        5.94406681      -3.24764655      -3.83467693
C        5.51099904      -4.02681059      -3.02240130
Br       4.81076507      -5.28665295      -1.70902031
C       -0.88147227      -0.88147227      -0.88147227
C       -1.51035634      -0.33503181      -1.99626363
C       -2.33533864      -1.13973783      -2.78793663
C       -2.50108953      -2.50244987      -2.50406063
C       -1.87401734      -3.02674490      -1.36924179
C       -1.06685071      -2.22303193      -0.55708904
N       -3.35983815      -3.33719253      -3.23856204
C       -3.27357676      -3.45771007      -4.51571677
S       -2.15907341      -2.77181711      -5.64757172
C       -3.17245979      -3.08581263      -6.99064452
C       -3.14763110      -2.45175703      -8.29672211
H       -3.76609100      -2.90110038      -9.06741475
C       -2.44500850      -1.25534555      -8.58761272
C       -2.12023063      -0.71551344      -9.82698657
C       -1.40698979       0.48945205      -9.60587398
C       -1.34811015       0.64397273      -8.24428210
O       -1.97492729      -0.38689017      -7.62944230
C       -4.15123997      -4.10124204      -6.52507503
O       -4.87751199      -4.67504288      -7.31689281
N       -4.16002547      -4.22303329      -5.17998603
H       -1.37867129       0.71237726      -2.25394228
H       -2.84904976      -0.68673035      -3.63171134
H       -2.03026228      -4.06958253      -1.10565803
H       -0.59914183      -2.65143193       0.32505239
H       -2.35969914      -1.15644474     -10.78540126
H       -0.99098203       1.15580115     -10.34793755
H       -4.85872981      -4.75887984      -4.69351555
C       -0.71508096       1.73739405      -7.55341027
C       -0.18491902       2.65313440      -6.97480512
Br       0.67230799       4.13380909      -6.03924952
C       -0.88147227       0.88147227       0.88147227
C       -2.14281773       0.43480596       1.26402809
C       -2.95646229       1.25447023       2.05208057
C       -2.50224315       2.50121252       2.50414436
C       -1.23866140       2.93784568       2.09349695
C       -0.42773744       2.13496925       1.28426498
N       -3.30230959       3.38059191       3.25269122
C       -3.87797756       3.02353672       4.34548932
S       -3.82615120       1.53179259       5.22051845
C       -5.23752604       1.89228820       6.11910270
C       -6.11635549       0.96736173       6.81239302
H       -6.86974728       1.40492665       7.45993221
C       -6.10069185      -0.43775211       6.62502703
C       -6.67889473      -1.42770995       7.41154585
C       -6.38439577      -2.68263695       6.82165290
C       -5.66069540      -2.40288057       5.69060468
O       -5.49662581      -1.06513296       5.55976690
C       -5.43389991       3.35836916       5.98528796
O       -6.24355890       3.94431632       6.68157246
N       -4.68431796       3.88558208       4.99314475
H       -2.50965227      -0.53828970       0.94887374
H       -3.95323828       0.90562615       2.30862702
H       -0.88937829       3.92233912       2.39378542
H        0.54564120       2.50125490       0.96990768
H       -7.23806211      -1.25858653       8.32206954
H       -6.66586933      -3.66255608       7.17980517
H       -4.80226583       4.83291711       4.67594225
C       -5.14297081      -3.37842311       4.76654949
C       -4.70937647      -4.19543999       3.99265327
Br      -4.00829108      -5.51648719       2.74132853
C        0.88147227      -0.88147227       0.88147227
C        1.23606703      -0.44953584       2.15604890
C        2.06243384      -1.24901613       2.95156312
C        2.50088861      -2.50292765       2.50378377
C        2.14717174      -2.90956980       1.21326249
C        1.34133312      -2.10490576       0.40073279
N        3.37371864      -3.31683467       3.24503941
C        3.12315169      -3.66746412       4.45638779
S        1.75312533      -3.35841512       5.46692179
C        2.59734492      -3.74755002       6.90402199
C        2.27203817      -3.35922044       8.26485162
H        2.83895460      -3.83925742       9.05639412
C        1.33837361      -2.34725665       8.60233652
C        0.74698142      -2.08318227       9.83256695
C       -0.12338888      -0.97601072       9.67078988
C       -0.00767264      -0.59897164       8.35712051
O        0.87108996      -1.40486182       7.71530797
C        3.79434938      -4.51255550       6.47065215
O        4.48467041      -5.10164422       7.28313306
N        4.02127438      -4.39756335       5.14420707
H        0.88909479       0.50679815       2.53793967
H        2.36074956      -0.87816799       3.92857389
H        2.51814164      -3.85682826       0.83053292
H        1.08920122      -2.43841106      -0.60209091
H        0.91577349      -2.64304987      10.74272177
H       -0.75253154      -0.51619851      10.41945146
H        4.86572141      -4.73294146       4.71246232
C       -0.71173567       0.49246276       7.73529562
C       -1.30138846       1.40653907       7.21451727
Br      -2.25480715       2.88452315       6.37246273
