194
Properties=species:S:1:pos:R:3 pbc="F F F"
C        1.79196173       1.79196173      -1.79196173
C        1.52360587       3.15799027      -1.88482406
C        2.33913167       3.97108485      -2.67363062
C        3.42087948       3.41764422      -3.36172101
C        3.67960020       2.04400656      -3.27389404
C        2.85956979       1.22538939      -2.48813001
C        4.83085315       1.48769938      -3.99791921
N        5.90516921       2.11460558      -4.35743443
C        6.62522273       1.13971095      -5.00496614
C        7.84477290       1.34500188      -5.52802976
C        8.62225080       0.36026555      -6.28492174
C        8.42746626       0.25325150      -7.66459221
C        9.07994052      -0.74244333      -8.40956386
I        8.50776968      -0.87320170     -10.42803763
C        9.98472617      -1.61794747      -7.78991380
O       10.52571286      -2.70258906      -8.43651597
C       11.58665375      -2.38235848      -9.34736435
C       12.46899631      -3.59949304      -9.53109701
C       11.88742545      -4.76299134     -10.07680443
C       12.64413966      -5.91238090     -10.31447103
C       14.00193263      -5.92121980     -10.01333067
C       14.59599743      -4.78349801      -9.46937576
C       13.83857622      -3.62921788      -9.22775183
Br      14.75936116      -2.14279720      -8.48599026
C       10.19281265      -1.48642550      -6.40385799
I       11.49175466      -2.76316712      -5.35319263
C        9.51762308      -0.50613820      -5.65546979
C        5.85005077      -0.13665626      -5.02710367
O        6.11977700      -1.21278573      -5.51552283
O        4.71768060       0.18519977      -4.33834839
H        0.69039035       3.59882496      -1.34255792
H        2.13307612       5.03733028      -2.74849557
H        4.05318055       4.06071256      -3.97207271
H        3.05897998       0.16034955      -2.40112545
H        8.30073388       2.32690964      -5.43383554
H        7.72449733       0.92584941      -8.15264304
H       12.13711283      -1.49414509      -9.02627768
H       11.16818998      -2.15943143     -10.33460611
H       10.82474904      -4.77597338     -10.32036837
H       12.17398067      -6.79807438     -10.73456493
H       14.59652876      -6.81232204     -10.19814310
H       15.65847331      -4.80499765      -9.23691556
H        9.66889610      -0.43569296      -4.57972398
C       -1.79196173      -1.79196173      -1.79196173
C       -1.91703574      -3.15035111      -1.49903335
C       -2.73775911      -3.95587646      -2.29021157
C       -3.43300913      -3.40073789      -3.36649769
C       -3.29564630      -2.03884791      -3.66300660
C       -2.46845663      -1.23005503      -2.87457752
C       -4.04686199      -1.47609236      -4.79351739
N       -5.14951560      -1.92675960      -5.30093402
C       -5.39483930      -1.04725059      -6.32780993
C       -6.47455887      -1.12052780      -7.12271786
C       -6.74635991      -0.25083320      -8.27024498
C       -6.22923695      -0.59365312      -9.52241989
C       -6.38407768       0.26208922     -10.62507260
I       -5.36751379      -0.32692665     -12.36816517
C       -7.11010941       1.45672849     -10.50331157
O       -7.15709153       2.39916720     -11.50171544
C       -8.03672149       2.07153302     -12.58647115
C       -8.46549326       3.34677982     -13.28188684
C       -7.46645089       4.14393304     -13.87872069
C       -7.78592271       5.31272311     -14.57303019
C       -9.11443703       5.70804271     -14.68764918
C      -10.11726515       4.93714820     -14.10175823
C       -9.79942493       3.76479299     -13.40247823
Br     -11.25118945       2.79857791     -12.64994269
C       -7.64812717       1.78151011      -9.24362809
I       -8.72027675       3.56168783      -8.92319125
C       -7.46842447       0.93608940      -8.13461960
C       -4.29845113      -0.03614730      -6.40589974
O       -4.13020139       0.88424987      -7.17656258
O       -3.48914961      -0.38659148      -5.36548768
H       -1.38844085      -3.58794360      -0.65538878
H       -2.83803282      -5.01609608      -2.06477308
H       -4.07327569      -4.03671177      -3.97597836
H       -2.36502422      -0.16891113      -3.08651963
H       -7.20431335      -1.90703204      -6.95013368
H       -5.66148210      -1.51664059      -9.62486709
H       -8.87747143       1.45885495     -12.25062894
H       -7.49348391       1.48564520     -13.33552594
H       -6.41918803       3.85078910     -13.80074510
H       -6.99882087       5.91212413     -15.02377447
H       -9.36937989       6.61577673     -15.22874667
H      -11.15190510       5.25914692     -14.19763305
H       -7.86730756       1.21535973      -7.16097929
C       -1.79196173       1.79196173       1.79196173
C       -3.12286388       1.43409755       2.00945876
C       -3.92675920       2.22618199       2.83090596
C       -3.39706245       3.36843347       3.43474877
C       -2.06353332       3.72935787       3.20460961
C       -1.25688362       2.93982269       2.37638288
C       -1.52631511       4.92925291       3.86090372
N       -1.94519923       5.47349163       4.95851835
C       -1.11347479       6.55836832       5.09805670
C       -1.17366638       7.40817949       6.13595867
C       -0.35715093       8.61431421       6.29597295
C       -0.79773797       9.81491489       5.73265711
C        0.00113489      10.96892661       5.77926933
I       -0.73956533      12.61738767       4.70565261
C        1.23801127      10.95287136       6.44183241
O        2.12344034      12.00148707       6.38159303
C        1.78248003      13.11525102       7.21888863
C        3.03738977      13.90133567       7.53665438
C        3.74460550      14.48245419       6.46338985
C        4.88757858      15.25551870       6.67828967
C        5.34651044      15.46639456       7.97415938
C        4.66505550      14.89781007       9.04912061
C        3.51889781      14.11969143       8.83631655
Br       2.67627709      13.39995926      10.37887206
C        1.66216296       9.74500225       7.02740586
I        3.51264405       9.58195379       8.01247041
C        0.87260607       8.58379757       6.95576317
C       -0.16875401       6.62829060       3.94345356
O        0.69606836       7.43646500       3.68211746
O       -0.50254052       5.52632140       3.21236685
H       -3.53962721       0.53954392       1.55260210
H       -4.96556371       1.95020210       3.00313616
H       -4.03130258       3.97823868       4.07642456
H       -0.21656141       3.20221782       2.20167575
H       -1.90879603       7.23530584       6.91737720
H       -1.75419930       9.83528058       5.21350990
H        1.23586812      12.79524862       8.10986492
H        1.12671424      13.79973754       6.67034135
H        3.40055739      14.32955425       5.44014717
H        5.41731436      15.69240341       5.83538216
H        6.23445448      16.06903835       8.14776595
H        5.03617688      15.06938742      10.05718068
H        1.22768494       7.65075933       7.38985273
C        1.79196173      -1.79196173       1.79196173
C        3.10654984      -1.40525398       2.05461638
C        3.90966535      -2.19782037       2.87636142
C        3.39529989      -3.36947062       3.43547419
C        2.07850137      -3.75896434       3.16003510
C        1.27288032      -2.96883483       2.33137404
C        1.55679707      -4.98983009       3.76984458
N        1.96123165      -5.55229318       4.86368439
C        1.15570302      -6.66201658       4.95218022
C        1.21151316      -7.53764789       5.96864348
C        0.42391653      -8.76869621       6.07482535
C        0.91138487      -9.94167076       5.49225434
C        0.14299128     -11.11710977       5.48696001
I        0.95585070     -12.71597356       4.39078134
C       -1.11084796     -11.15143857       6.11610188
O       -1.96577288     -12.22094734       6.00446531
C       -1.61700091     -13.34755503       6.82110549
C       -2.85815899     -14.17462529       7.08413398
C       -3.52099635     -14.74495329       5.97728160
C       -4.64794597     -15.55329631       6.14087945
C       -5.13490798     -15.81104452       7.41790695
C       -4.49751953     -15.25396424       8.52543046
C       -3.36757899     -14.44054355       8.36414560
Br      -2.58550208     -13.74080510       9.94725121
C       -1.58267348      -9.97136950       6.72154913
I       -3.46212112      -9.88363182       7.66026946
C       -0.82312572      -8.78831203       6.70176836
C        0.24387311      -6.72555612       3.77106894
O       -0.59166397      -7.54882682       3.46535125
O        0.56689719      -5.59587334       3.07845824
H        3.51088365      -0.48805882       1.63283076
H        4.93576168      -1.89939152       3.08374877
H        4.02868537      -3.97949379       4.07778666
H        0.24496591      -3.25366160       2.12182747
H        1.92092724      -7.36666730       6.77388453
H        1.88135641      -9.92288609       4.99874728
H       -1.10281895     -13.03745892       7.73460546
H       -0.92882009     -13.99952678       6.27265796
H       -3.15443485     -14.55551406       4.96806482
H       -5.14337295     -15.98104542       5.27279875
H       -6.01052283     -16.44127335       7.55159930
H       -4.89023226     -15.46236925       9.51825423
H       -1.21453218      -7.87697686       7.15048243
C       -0.00445707       0.01189536      -1.78238275
H       -0.66409135       0.67374010      -2.43557963
H        0.65740317      -0.63156657      -2.45157240
C       -0.90989263      -0.90692880      -0.91072765
C        0.90977584       0.90977584      -0.90977584
C       -0.00465871       1.77757030       0.00794375
H       -0.66225468       2.44313916      -0.64384735
H        0.64322798       2.43503045       0.67728295
C       -1.78241447       0.00034974      -0.00472694
H       -2.45427497      -0.65498947       0.64260836
H       -2.43311707       0.67328779      -0.65473579
C       -0.91132561       0.90220522       0.91563759
C       -0.01476271      -0.02253852       1.78660255
H       -0.67934791      -0.69751639       2.42135241
H        0.63392994       0.61504881       2.47327442
C        0.01484550      -1.77751727      -0.01636693
H        0.67870853      -2.42144646      -0.68295456
H       -0.62264859      -2.45592969       0.64226336
C        1.78714474       0.01002794       0.00389507
H        2.44202412       0.67113390       0.66197326
H        2.45385902      -0.65136977      -0.64189061
C        0.91606151      -0.90478549       0.90901405
