181
Properties=species:S:1:pos:R:3 pbc="F F F"
C        0.00000000       0.00000000       0.00000000
C        0.88205771       0.88205771      -0.88205771
C        0.61370184       2.24808625      -0.97492003
C        1.42922765       3.06118083      -1.76372660
C        2.51097545       2.50774019      -2.45181698
C        2.76969618       1.13410254      -2.36399002
C        1.94966576       0.31548537      -1.57822598
C        3.92094912       0.57779536      -3.08801519
N        4.99526519       1.20470155      -3.44753040
C        5.71531870       0.22980692      -4.09506212
C        6.93486887       0.43509785      -4.61812573
C        7.71234678      -0.54963847      -5.37501771
C        7.51756223      -0.65665253      -6.75468819
C        8.17003649      -1.65234735      -7.49965984
I        7.59786566      -1.78310573      -9.51813361
C        9.07482215      -2.52785150      -6.88000977
O        9.61580884      -3.61249309      -7.52661194
C       10.67674973      -3.29226251      -8.43746033
C       11.55909229      -4.50939706      -8.62119298
C       10.97752143      -5.67289537      -9.16690041
C       11.73423563      -6.82228492      -9.40456700
C       13.09202860      -6.83112383      -9.10342665
C       13.68609341      -5.69340204      -8.55947174
C       12.92867219      -4.53912190      -8.31784780
C        9.28290863      -2.39632952      -5.49395397
I       10.58185063      -3.67307114      -4.44328860
C        8.60771905      -1.41604222      -4.74556576
C        4.94014675      -1.04656029      -4.11719965
O        5.20987297      -2.12268976      -4.60561881
O        3.80777658      -0.72470425      -3.42844437
H       -0.21951368       2.68892094      -0.43265389
H        1.22317210       4.12742626      -1.83859155
H        3.14327653       3.15080854      -3.06216868
H        2.14907596      -0.74955448      -1.49122143
H        7.39082986       1.41700562      -4.52393152
H        6.81459331       0.01594538      -7.24273902
H       11.22720881      -2.40404912      -8.11637366
H       10.25828595      -3.06933545      -9.42470208
H        9.91484502      -5.68587741      -9.41046434
H       11.26407664      -7.70797840      -9.82466090
H       13.68662474      -7.72222607      -9.28823908
H       14.74856929      -5.71490167      -8.32701154
H        8.75899208      -1.34559699      -3.66981996
C       13.62677187      -3.41218145      -7.75547598
C       14.21143035      -2.46836883      -7.28448958
Br      15.15677366      -0.94230364      -6.52294440
C       -0.88205771      -0.88205771      -0.88205771
C       -1.20809769      -2.17066214      -0.45794829
C       -2.03020112      -2.97270086      -1.25123309
C       -2.52645516      -2.48295740      -2.46112007
C       -2.18746340      -1.19271628      -2.88760905
C       -1.35827010      -0.38851933      -2.09658769
C       -2.73191127      -0.69603579      -4.15881261
N       -3.81904840      -1.08134304      -4.74710571
C       -3.83658722      -0.31563070      -5.88796982
C       -4.82188134      -0.36744302      -6.79876810
C       -4.85334248       0.37642188      -8.06080542
C       -4.24728919      -0.17590205      -9.19240665
C       -4.17017771       0.54682900     -10.39400027
I       -3.04801372      -0.36522725     -11.91965257
C       -4.74982965       1.82054834     -10.49769911
O       -4.56710944       2.62982245     -11.59264070
C       -5.35478774       2.26869459     -12.73585439
C       -5.54044963       3.48646972     -13.61690830
C       -4.38931492       4.08655004     -14.16876159
C       -4.48068000       5.18736176     -15.02319948
C       -5.72816629       5.71040532     -15.34657045
C       -6.87852739       5.13526274     -14.80889846
C       -6.78976996       4.03174027     -13.94936840
C       -5.37957698       2.35835188      -9.35930798
I       -6.24918761       4.27270028      -9.37558076
C       -5.43159104       1.64382946      -8.14948101
C       -2.62033811       0.54954369      -5.93999168
O       -2.25350103       1.34169462      -6.78099561
O       -1.98201276       0.24443236      -4.77393630
H       -0.83556080      -2.55514008       0.48863973
H       -2.28693607      -3.97855834      -0.92369550
H       -3.16960585      -3.11513519      -3.07151271
H       -1.09980540       0.61958904      -2.41052655
H       -5.65904154      -1.04010467      -6.63262078
H       -3.79179402      -1.16179416      -9.11968953
H       -6.29774588       1.80019353     -12.44198100
H       -4.80936174       1.53686186     -13.34115270
H       -3.40223457       3.69091002     -13.92810741
H       -3.57950397       5.63434193     -15.43559710
H       -5.80564754       6.56586940     -16.01285961
H       -7.84755878       5.55570460     -15.06882497
H       -5.89807616       2.08546524      -7.27060413
C       -8.03007592       3.50335938     -13.44334985
C       -9.06883216       3.06084039     -13.01955932
Br     -10.74841314       2.34532460     -12.33432588
C       -0.88205771       0.88205771       0.88205771
C       -2.19019405       0.48522114       1.16129293
C       -2.99302590       1.27797077       1.98313840
C       -2.48475402       2.45996203       2.52581657
C       -1.17455858       2.85948064       2.23374951
C       -0.36931226       2.06912429       1.40494056
C       -0.65903670       4.10124880       2.82647417
N       -1.05833868       4.67044069       3.91871778
C       -0.26288445       5.78872796       3.98857534
C       -0.31740801       6.67367870       4.99700575
C        0.45910044       7.91327867       5.08354778
C       -0.04543927       9.07572111       4.49443751
C        0.71133204      10.25844056       4.47024046
I       -0.12770944      11.83855561       3.36662849
C        1.97081130      10.31106665       5.08672507
O        2.81411179      11.38766390       4.95637558
C        2.46226337      12.51877458       5.76543633
C        3.69776143      13.36036282       6.00828682
C        4.34423464      13.92623058       4.88953053
C        5.46475505      14.74701436       5.03425840
C        5.96152050      15.02194739       6.30390453
C        5.34037069      14.46957918       7.42295461
C        4.21693173      13.64371187       7.28061795
C        2.46000069       9.14160261       5.69893116
I        4.34922209       9.08126251       6.62002767
C        1.71190599       7.95110582       5.69804277
C        0.63679578       5.84954095       2.79804094
O        1.46123885       6.67783714       2.47620374
O        0.31814340       4.71006087       2.11959922
H       -2.58960346      -0.43992989       0.75238759
H       -4.01409673       0.97165882       2.20343435
H       -3.11782449       3.07007474       3.16835452
H        0.65368862       2.36183195       1.18259958
H       -1.01728174       6.50371893       5.81076632
H       -1.01991586       9.04271437       4.01064748
H        1.96001281      12.21266272       6.68688344
H        1.76245722      13.15865303       5.21745676
H        3.96978445      13.72338615       3.88583025
H        5.94754151      15.17103068       4.15726997
H        6.83218257      15.66190658       6.42291374
H        5.74062531      14.69148057       8.40982389
H        2.11653686       7.04803801       6.15171389
C        3.64086727      13.11924731       8.49168635
C        3.15841328      12.68000824       9.50595613
Br       2.37832599      11.96979582      11.14594459
C        0.88205771      -0.88205771       0.88205771
C        1.44345714      -0.34998591       2.04326507
C        2.23352639      -1.15796520       2.86264348
C        2.45526387      -2.49377642       2.52149233
C        1.89841607      -3.02019874       1.34917392
C        1.11051580      -2.21023574       0.52262558
C        2.13665666      -4.43186347       1.01823953
N        2.41401073      -5.39161438       1.84187203
C        2.55303310      -6.47675245       1.01040220
C        2.82068630      -7.71674175       1.45066441
C        3.04478541      -8.89041358       0.60252702
C        4.33322502      -9.15298679       0.12938608
C        4.57152023     -10.20989935      -0.76407059
I        6.52993396     -10.32245141      -1.51949183
C        3.52615622     -11.05901370      -1.15818950
O        3.67193485     -12.00326869      -2.14527584
C        4.36942120     -13.18785457      -1.73532823
C        3.96884565     -14.33782306      -2.63578050
C        4.25372843     -14.23095684      -4.01315880
C        3.95228111     -15.26558278      -4.90134617
C        3.36092185     -16.43245562      -4.42904605
C        3.06699130     -16.55729861      -3.07212680
C        3.36642184     -15.51970178      -2.17872554
C        2.23620269     -10.80121381      -0.65688342
I        0.58040852     -11.97592193      -1.20426236
C        1.99526231      -9.72576877       0.21621152
C        2.36352279      -6.05779614      -0.41053283
O        2.42748668      -6.70118618      -1.43587083
O        2.08251035      -4.72783677      -0.29883042
H        1.26572805       0.68596292       2.32229603
H        2.67314863      -0.74653488       3.76950639
H        3.07052326      -3.11696316       3.16876734
H        0.66154573      -2.61156184      -0.38236466
H        2.92714607      -7.88577603       2.51884490
H        5.14922625      -8.49701808       0.42703338
H        4.21598068     -13.39691321      -0.67336055
H        5.44592982     -13.04915082      -1.88142806
H        4.71780862     -13.32463683      -4.40301350
H        4.17974438     -15.16025918      -5.95924442
H        3.12591636     -17.24208643      -5.11536505
H        2.60277410     -17.47467450      -2.71676945
H        0.98684770      -9.52344717       0.57292017
C        3.02842536     -15.73767067      -0.79602964
C        2.74535331     -15.92021962       0.36197817
Br       2.28764974     -16.21538582       2.23437887
