174
Properties=species:S:1:pos:R:3 pbc="F F F"
C        1.79159683       1.79159683      -1.79159683
C        3.09555624       2.08100200      -1.39527891
C        3.89650029       2.89668191      -2.19851250
C        3.40860626       3.40463687      -3.40780169
C        2.09293398       3.11879297      -3.78423642
C        1.28332722       2.31028545      -2.98103532
N        4.18662826       4.25718262      -4.20225430
C        5.16337748       3.78715882      -4.89687218
N        5.90933041       4.61702078      -5.64875780
C        6.88746869       4.04686365      -6.38449960
O        7.59805915       4.59705232      -7.20373212
C        6.98964133       2.59254400      -6.14815932
S        5.73202581       2.15897372      -5.07242212
C        7.86729318       1.66520643      -6.80061787
C        9.24401147       1.32308205      -6.35357456
O        9.78386940       1.72531940      -5.33997336
N        9.72493254       0.45602802      -7.33449637
C       11.02778433      -0.15273275      -7.31852212
C        8.77210664       0.26146247      -8.35125872
C        8.87155085      -0.50734945      -9.49595462
C        7.77461895      -0.52384649     -10.36552926
C        6.61728587       0.22098049     -10.07354426
C        6.52398814       0.99210268      -8.91422851
C        7.61482339       0.99478009      -8.06546454
H        3.49569501       1.68685844      -0.46518491
H        4.90709545       3.13673454      -1.87903310
H        1.69280644       3.53635738      -4.70426334
H        0.26221632       2.10007854      -3.28751233
H        5.69812497       5.59928130      -5.70915571
H       11.58400011       0.15804300      -6.42978588
H       11.58282610       0.15294171      -8.21016844
H       10.91775753      -1.24124703      -7.30518562
H        9.76273899      -1.07955781      -9.72729961
H        7.82571923      -1.11825632     -11.27537713
H        5.63272130       1.56736690      -8.68904965
C        5.50582285       0.18850277     -10.98852794
C        4.57497256       0.16130268     -11.75482678
Br       3.06986638       0.11732243     -12.99386718
C       -1.79159683      -1.79159683      -1.79159683
C       -1.20302056      -2.66880793      -2.70000866
C       -2.01212006      -3.46655353      -3.51302110
C       -3.40624736      -3.40938905      -3.40540841
C       -3.98246689      -2.51272803      -2.50076845
C       -3.17884812      -1.70549748      -1.69030239
N       -4.22970019      -4.17327025      -4.24309474
C       -4.35626579      -5.43999545      -4.05114724
N       -5.14252767      -6.16475629      -4.86782504
C       -5.26218992      -7.47818554      -4.57845647
O       -5.99925006      -8.27960603      -5.11998749
C       -4.41951686      -7.87765279      -3.43317501
S       -3.66442208      -6.46375829      -2.83524128
C       -4.34588289      -9.17025256      -2.81698203
C       -3.42815285     -10.26719416      -3.22532107
O       -2.56992548     -10.19439541      -4.08484128
N       -3.77517072     -11.33822239      -2.40206382
C       -3.13840272     -12.62746109      -2.42770988
C       -4.83976437     -10.99741860      -1.54764485
C       -5.47694984     -11.78025655      -0.60294963
C       -6.52989313     -11.20313273       0.11672414
C       -6.91694170      -9.87189924      -0.12296968
C       -6.26637607      -9.08758135      -1.07636191
C       -5.22731366      -9.67207252      -1.77568184
H       -0.12228719      -2.73522547      -2.79022570
H       -1.55193567      -4.13679416      -4.23413327
H       -5.06433324      -2.43548856      -2.43360536
H       -3.64329815      -1.01230776      -0.99420128
H       -5.66618922      -5.73064598      -5.60972678
H       -2.34493859     -12.64695424      -3.17993615
H       -3.87929615     -13.39404373      -2.67259637
H       -2.70144176     -12.83412581      -1.44612856
H       -5.18508207     -12.80770596      -0.41769275
H       -7.05122951     -11.79654836       0.86493782
H       -6.56486795      -8.06178760      -1.26248230
C       -8.00646405      -9.30579130       0.62940179
C       -8.91893902      -8.83167589       1.25951290
Br     -10.39433388      -8.06507138       2.27834926
C       -1.79159683       1.79159683       1.79159683
C       -1.48565828       1.94390135       3.14227752
C       -2.30013736       2.74252246       3.94903488
C       -3.40487778       3.40907229       3.40709475
C       -3.70849884       3.23368281       2.05378172
C       -2.90264208       2.42920378       1.24280213
N       -4.25348296       4.17947150       4.21311072
C       -3.87615412       5.33553328       4.63572108
N       -4.69605576       6.06221860       5.41683464
C       -4.25126376       7.28286782       5.78470035
O       -4.87322751       8.13230264       6.39331345
C       -2.88129203       7.54820619       5.30084643
S       -2.40423557       6.20646939       4.35271669
C       -2.12532820       8.75736973       5.45041956
C       -1.23907443       9.08150401       6.60008964
O       -0.97915072       8.34045310       7.52955834
N       -0.79367886      10.37809682       6.34368125
C        0.10840988      11.11352413       7.18845945
C       -1.35121169      10.88015780       5.15345834
C       -1.17185399      12.11986407       4.56843797
C       -1.85784573      12.38185242       3.37660357
C       -2.69810458      11.40912629       2.80457975
C       -2.87121995      10.15902205       3.40007733
C       -2.18439159       9.91605185       4.57462459
H       -0.62582018       1.44318337       3.57873481
H       -2.07100924       2.84551705       5.00633681
H       -4.58382191       3.71906056       1.63054469
H       -3.15447767       2.30188498       0.19344455
H       -5.61893426       5.73614239       5.65148533
H        0.39595519      10.51232553       8.05545864
H       -0.38255856      12.02700542       7.53637227
H        1.00786968      11.36921131       6.62035449
H       -0.52881917      12.87404289       5.00761872
H       -1.73755538      13.35010695       2.89517773
H       -3.51958584       9.40916580       2.96038620
C       -3.39467756      11.70796588       1.58021012
C       -3.97805743      11.95824404       0.55480055
Br      -4.92133333      12.36292266      -1.10319999
C        1.79159683      -1.79159683       1.79159683
C        2.35894776      -2.94935274       1.26353665
C        3.15644320      -3.75986209       2.07538941
C        3.40941661      -3.40609205       3.40553617
C        2.82012096      -2.25003978       3.92580263
C        2.01419371      -1.43907576       3.12137851
N        4.17306140      -4.23087724       4.24212654
C        5.45218841      -4.28754780       4.10767227
N        6.17401849      -5.09032706       4.91076344
C        7.51334235      -5.06405068       4.74143891
O        8.34580505      -5.62616091       5.42687763
C        7.91873404      -4.18798822       3.62362240
S        6.50226726      -3.44739049       3.01376390
C        9.25368986      -3.87564097       3.20378665
C       10.04974657      -4.65365952       2.21726199
O        9.65444152      -5.61303631       1.58168434
N       11.29407831      -4.02396109       2.19741753
C       12.39911528      -4.42533045       1.36912797
C       11.33302997      -2.94830175       3.10349610
C       12.38083258      -2.09218041       3.38714303
C       12.16672818      -1.09919283       4.35038070
C       10.92401845      -0.98733286       5.00045931
C        9.87052437      -1.85380972       4.70598524
C       10.09808673      -2.82635222       3.75062906
H        2.18296902      -3.23473366       0.23003568
H        3.58313603      -4.67228180       1.66744526
H        2.98197230      -1.98442102       4.96703384
H        1.56200975      -0.54524830       3.54254915
H        5.73791898      -5.62519954       5.64344346
H       12.12449085      -5.28947519       0.75786294
H       13.24951552      -4.69383856       2.00258217
H       12.67512611      -3.59754367       0.70902635
H       13.34142832      -2.17709139       2.89196108
H       12.97444520      -0.41275409       4.59564076
H        8.91275190      -1.76894238       5.20744356
C       10.73371126       0.04110957       5.99025188
C       10.57432898       0.90243011       6.81920315
Br      10.31662131       2.29511257       8.15954726
C       -0.00445707       0.01189536      -1.78238275
H       -0.66409135       0.67374010      -2.43557963
H        0.65740317      -0.63156657      -2.45157240
C       -0.90989263      -0.90692880      -0.91072765
C        0.90977584       0.90977584      -0.90977584
C       -0.00465871       1.77757030       0.00794375
H       -0.66225468       2.44313916      -0.64384735
H        0.64322798       2.43503045       0.67728295
C       -1.78241447       0.00034974      -0.00472694
H       -2.45427497      -0.65498947       0.64260836
H       -2.43311707       0.67328779      -0.65473579
C       -0.91132561       0.90220522       0.91563759
C       -0.01476271      -0.02253852       1.78660255
H       -0.67934791      -0.69751639       2.42135241
H        0.63392994       0.61504881       2.47327442
C        0.01484550      -1.77751727      -0.01636693
H        0.67870853      -2.42144646      -0.68295456
H       -0.62264859      -2.45592969       0.64226336
C        1.78714474       0.01002794       0.00389507
H        2.44202412       0.67113390       0.66197326
H        2.45385902      -0.65136977      -0.64189061
C        0.91606151      -0.90478549       0.90901405
