189
Properties=species:S:1:pos:R:3 pbc="F F F"
C        0.00000000       0.00000000       0.00000000
C        0.88121242       0.88121242      -0.88121242
C        2.14754161       0.44444187      -1.25466979
C        2.95064641       1.25702643      -2.06176242
C        2.50399432       2.51535218      -2.49795616
C        1.22328033       2.93443286      -2.10729390
C        0.41502037       2.12201774      -1.30385594
N        3.34055586       3.32871036      -3.30081147
N        4.57260966       2.81845186      -3.71757498
C        5.14485753       3.76504806      -4.40999258
C        6.47946212       3.61566853      -5.06323667
C        4.33476348       4.98972990      -4.45002407
C        4.68673171       6.16266932      -4.98929410
C        3.79028025       7.32215964      -5.01449282
C        3.80644099       8.16867955      -3.89528684
C        2.87175504       9.19409195      -3.78078540
Br       2.86379941      10.27767221      -2.23078500
C        1.92454328       9.40387157      -4.77841251
C        1.91354250       8.57439750      -5.90607628
I        0.44789917       8.94171290      -7.36135787
C        2.84948188       7.53533105      -6.04277205
O        2.71990316       6.67293808      -7.10728765
C        3.85994040       6.63749410      -7.96676345
C        3.50573569       5.92800971      -9.25156696
C        3.39949533       6.67332553     -10.43799594
C        3.12938704       6.04665914     -11.65622499
C        2.94873364       4.66737302     -11.70675296
C        3.03033027       3.91427786     -10.53607202
C        3.30679531       4.53854143      -9.31460975
Cl       3.42601501       3.53461147      -7.91173347
C        3.09100001       4.64410055      -3.72103218
O        2.14576983       5.38921870      -3.52099640
H        2.52370008      -0.51967915      -0.92483289
H        3.93926495       0.89820562      -2.33869164
H        0.81376505       3.89332560      -2.41820995
H       -0.57429643       2.47261559      -1.02089205
H        6.53928497       4.21232522      -5.97668852
H        6.64263484       2.56730635      -5.32903648
H        7.26063010       3.93352784      -4.36819824
H        5.65601891       6.31316565      -5.45204206
H        4.51082091       7.98962391      -3.08555492
H        1.18692079      10.19396450      -4.66276983
H        4.69132040       6.09123434      -7.51359213
H        4.21443109       7.65458562      -8.17794145
H        3.53515345       7.75286316     -10.42236307
H        3.06177554       6.63734344     -12.56686945
H        2.74195183       4.17882184     -12.65573218
H        2.88302998       2.83781581     -10.58327385
C       -0.88121242      -0.88121242      -0.88121242
C       -0.41553669      -2.11849041      -1.31262616
C       -1.22762910      -2.92110057      -2.12070560
C       -2.50757000      -2.49617282      -2.51355984
C       -2.95477668      -1.24372692      -2.06650350
C       -2.14694620      -0.44007475      -1.25387309
N       -3.30620953      -3.31794137      -3.34592679
N       -2.83164151      -4.58586594      -3.69112906
C       -3.73399431      -5.11364691      -4.47225696
C       -3.62369077      -6.48752488      -5.04715167
C       -4.84915357      -4.19347702      -4.73188687
C       -5.87436669      -4.39697269      -5.56735575
C       -6.96487751      -3.43119327      -5.73086192
C       -6.78100198      -2.41175344      -6.67765195
C       -7.70174864      -1.37187302      -6.77301074
Br      -7.39787779       0.03054254      -8.00492137
C       -8.82109605      -1.33882382      -5.94690749
C       -9.02026842      -2.36166577      -5.01208209
I      -10.72204678      -2.23722656      -3.79169659
C       -8.10473725      -3.42176449      -4.90108324
O       -8.27944146      -4.33452194      -3.88616549
C       -8.44728253      -5.67887113      -4.33804429
C       -8.94554539      -6.53851472      -3.20125225
C      -10.26804478      -7.01237363      -3.23039839
C      -10.74935568      -7.85583966      -2.22707583
C       -9.92133454      -8.22923600      -1.17228908
C       -8.61232258      -7.75210759      -1.11624998
C       -8.12513685      -6.91150873      -2.12330093
Cl      -6.48153325      -6.38782343      -2.00300326
C       -4.54796914      -2.99438298      -3.91378062
O       -5.22801817      -1.98375498      -3.84421177
H        0.57355054      -2.46955655      -1.03284782
H       -0.84243028      -3.88320785      -2.45052409
H       -3.93890638      -0.85957608      -2.32681815
H       -2.52286903       0.52378913      -0.92013131
H       -4.60995479      -6.93892320      -5.17942071
H       -3.04538589      -7.12312944      -4.37046233
H       -3.11355271      -6.43651280      -6.01229067
H       -5.95957789      -5.30064497      -6.16100376
H       -5.88807964      -2.39866051      -7.29925959
H       -9.51812197      -0.50766418      -6.01786897
H       -7.50371588      -6.11093722      -4.68149379
H       -9.14931820      -5.71671445      -5.18092551
H      -10.93393360      -6.73229335      -4.04415273
H      -11.77223896      -8.22261044      -2.27113902
H      -10.29479810      -8.88882348      -0.39288427
H       -7.97336291      -8.04451975      -0.28623697
C       -0.88121242       0.88121242       0.88121242
C       -0.36947578       2.05620945       1.42096803
C       -1.18188925       2.85910581       2.22844021
C       -2.50866704       2.49584973       2.51278589
C       -3.00191687       1.30549697       1.95759327
C       -2.19351294       0.50212390       1.14525721
N       -3.30809782       3.31544333       3.34653654
N       -2.77994467       4.52569585       3.80299599
C       -3.69743314       5.06248140       4.55998364
C       -3.54062998       6.38804168       5.22969565
C       -4.88189151       4.20338258       4.68924337
C       -5.94531944       4.42193153       5.47144416
C       -7.10172186       3.52171805       5.50349280
C       -7.04375347       2.43592897       6.39072494
C       -8.03117299       1.45495580       6.36050361
Br      -7.89607596      -0.03773015       7.51391080
C       -9.09366972       1.54662034       5.46653730
C       -9.16744961       2.63606558       4.59050109
I      -10.78971224       2.69934071       3.26191699
C       -8.18294844       3.63848254       4.60615399
O       -8.23388386       4.62162364       3.64462140
C       -8.34782362       5.94365701       4.17271731
C       -8.71626109       6.90269847       3.06635280
C      -10.00605627       7.45980437       3.04495616
C      -10.36738661       8.39338530       2.07149926
C       -9.45033395       8.77587691       1.09664876
C       -8.17240432       8.21806093       1.09021490
C       -7.80529139       7.28671912       2.06793599
Cl      -6.19277937       6.66449541       2.01508517
C       -4.60210519       3.03983651       3.81419104
O       -5.33715637       2.08234162       3.63648694
H        0.65564000       2.35805721       1.22643661
H       -0.76059603       3.77161341       2.64395278
H       -4.02285632       0.97157401       2.13087028
H       -2.60541830      -0.41250116       0.72629407
H       -4.50372719       6.89430376       5.33026776
H       -2.88096605       7.02477052       4.63324110
H       -3.09919053       6.24414615       6.21901950
H       -6.01347587       5.29090296       6.11684780
H       -6.19615714       2.32581711       7.06402549
H       -9.84379896       0.76030957       5.43954660
H       -7.40403313       6.29072017       4.60139359
H       -9.10009761       5.97551708       4.97134347
H      -10.74002849       7.17445568       3.79589551
H      -11.36637380       8.82321451       2.07640011
H       -9.73032636       9.50542171       0.34075778
H       -7.46342149       8.51846532       0.32223283
C        0.88121242      -0.88121242       0.88121242
C        2.01633157      -0.34813878       1.48218291
C        2.82028865      -1.16111979       2.28802682
C        2.50635843      -2.51428981       2.49665441
C        1.35673487      -3.02933214       1.87894009
C        0.54728557      -2.21767709       1.07593139
N        3.34380707      -3.32327408       3.30299655
N        4.42944429      -2.72844444       3.95074778
C        5.03998008      -3.68539362       4.59452447
C        6.24825669      -3.46583682       5.44427381
C        4.41354730      -4.99434196       4.36662821
C        4.85894977      -6.17914982       4.80059554
C        4.14028712      -7.43269258       4.55395301
C        4.41544672      -8.10291150       3.35204915
C        3.65752522      -9.20967674       2.97943044
Br       3.99618697     -10.05445808       1.32161157
C        2.63328269      -9.67509777       3.79844690
C        2.36456299      -9.02217981       5.00727347
I        0.79677261      -9.77172678       6.18247055
C        3.11901888      -7.90500493       5.40356117
O        2.73701411      -7.22550729       6.53760749
C        3.74480761      -7.17131030       7.54808003
C        3.13659554      -6.70117526       8.84754156
C        2.99088782      -7.61492395       9.90500503
C        2.48529863      -7.20621391      11.14075863
C        2.10556983      -5.88132866      11.33596113
C        2.22401561      -4.96523872      10.29142582
C        2.73590724      -5.37034028       9.05369899
Cl       2.88447765      -4.17024829       7.81763401
C        3.23352525      -4.70574002       3.51686747
O        2.43602915      -5.52639993       3.09355585
H        2.28964667       0.69224365       1.33145080
H        3.70575313      -0.72535692       2.74505216
H        1.05226862      -4.06603267       2.00699932
H       -0.33928411      -2.64459372       0.61390160
H        6.27839216      -4.17417838       6.27572817
H        6.22648217      -2.45383499       5.85866050
H        7.14686557      -3.58219834       4.83329227
H        5.77475101      -6.27236294       5.37411268
H        5.18225836      -7.72452065       2.67922074
H        2.03557710     -10.52614184       3.48193619
H        4.53987084      -6.46722610       7.28904994
H        4.21127323      -8.15612373       7.67956121
H        3.27949172      -8.65599446       9.77489351
H        2.38978963      -7.92411438      11.95208442
H        1.71523202      -5.56211822      12.29915561
H        1.92049614      -3.93312122      10.45050228
