177
Properties=species:S:1:pos:R:3 pbc="F F F"
C        0.00000000       0.00000000       0.00000000
C        0.88255236       0.88255236      -0.88255236
C        0.38005844       1.37042841      -2.08638313
C        1.18178430       2.18167903      -2.88566908
C        2.47839101       2.50601346      -2.47661989
C        2.99302468       2.00485451      -1.27121214
C        2.18320455       1.18673718      -0.47380777
N        4.32668047       2.33461527      -0.86532728
C        4.74805541       2.63342156       0.43131715
C        3.87596031       2.69083962       1.64012083
C        6.08569838       2.97419269       0.38015856
C        6.52731454       2.88023722      -0.95818195
C        7.85265151       3.16704011      -1.47885901
N        8.78516587       3.53686311      -0.65878351
N       10.01730118       3.86803244      -1.18491225
C       10.22189828       4.54169842      -2.38458956
O        9.31690665       4.82229450      -3.16826339
C       11.59489953       4.93023112      -2.63973487
C       12.80045020       4.50250498      -2.12283770
C       13.80219065       5.24153427      -2.76597507
N       13.28960513       6.09985675      -3.64706718
N       11.95715301       5.88916686      -3.56832791
C       11.08297275       6.67728934      -4.40985953
C        5.44310608       2.43321375      -1.70593713
C        5.44513576       2.03501782      -3.14873608
H       -0.62958698       1.12811678      -2.40739956
H        0.79453855       2.57330444      -3.82336897
H        3.05409630       3.18664879      -3.09787051
H        2.56036886       0.74358327       0.44154194
H        4.34277470       3.30558079       2.41824061
H        3.73577057       1.69191242       2.06392470
H        2.90255259       3.13947871       1.42274169
H        6.68505395       3.28806025       1.22702204
H        8.01012449       3.03683524      -2.56135771
H       10.75854748       3.89172329      -0.49454604
H       14.87630943       5.19604001      -2.64083183
H       10.31585917       7.14124058      -3.78523131
H       10.64180351       6.01578375      -5.15894158
H       11.66478148       7.45908421      -4.90476655
H        4.73288406       1.23231948      -3.35874995
H        6.42707842       1.65106256      -3.44437769
H        5.22298817       2.89760345      -3.78439142
C       13.09022802       3.48663332      -1.14425015
C       13.33291694       2.63584081      -0.32468308
Br      13.72532440       1.26018127       1.00048756
C       -0.88255236      -0.88255236      -0.88255236
C       -0.33548741      -1.49269783      -2.00868475
C       -1.13809410      -2.30371655      -2.80732175
C       -2.48057699      -2.50573713      -2.47471024
C       -3.03883592      -1.88141693      -1.34883849
C       -2.22753362      -1.06427013      -0.55194575
N       -4.41836010      -2.08649812      -1.02176480
C       -4.94992904      -2.25763571       0.25740493
C       -4.17064393      -2.28505942       1.52902425
C       -6.30249186      -2.50752654       0.13028589
C       -6.64181568      -2.48333490      -1.24058314
C       -7.94548949      -2.71545916      -1.83760197
N       -8.95772944      -2.95732701      -1.06575604
N      -10.17162241      -3.24046804      -1.65815542
C      -10.34212476      -3.98600388      -2.82005763
O       -9.40836842      -4.38653240      -3.51256373
C      -11.71925785      -4.29618538      -3.14942229
C      -12.92248498      -3.74833866      -2.75496924
C      -13.92951675      -4.46195629      -3.41822694
N      -13.42249923      -5.41721394      -4.19681590
N      -12.08673109      -5.29430551      -4.03361118
C      -11.21751007      -6.20189411      -4.75071743
C       -5.47793112      -2.16980599      -1.93451984
C       -5.34998271      -1.88129928      -3.39760767
H        0.70928954      -1.34576296      -2.26945595
H       -0.71697558      -2.79023164      -3.68400474
H       -3.06095488      -3.18922670      -3.08843401
H       -2.63322233      -0.52886480       0.29967694
H       -4.73498949      -2.80605288       2.31092749
H       -3.98602274      -1.26942949       1.89169395
H       -3.22071792      -2.81521434       1.41664264
H       -6.98099252      -2.71487411       0.94977448
H       -8.01721768      -2.65583892      -2.93526084
H      -10.95873074      -3.16098316      -1.02510292
H      -15.00332944      -4.33273596      -3.37711588
H      -10.53243868      -6.67006625      -4.03982613
H      -10.67720058      -5.63042995      -5.50889830
H      -11.82029141      -6.97615585      -5.23218498
H       -4.56690791      -1.14795080      -3.60909479
H       -6.27759131      -1.45321218      -3.79171518
H       -5.14925684      -2.80229149      -3.95343471
C      -13.20286332      -2.64455027      -1.87369790
C      -13.43768018      -1.72012750      -1.13563315
Br     -13.81735918      -0.22541406       0.05775513
C       -0.88255236       0.88255236       0.88255236
C       -1.52444715       1.98624884       0.32617400
C       -2.33538649       2.78472860       1.12901731
C       -2.50561521       2.47423777       2.48117139
C       -1.84934469       1.37128443       3.04846222
C       -1.03247705       0.57449671       2.23677574
N       -2.02204065       1.06698383       4.43759854
C       -2.15849545      -0.20473001       4.99639438
C       -2.17616079      -1.49138795       4.24190626
C       -2.38522576      -0.05636628       6.35087304
C       -2.38099865       1.32098562       6.66374945
C       -2.59992542       1.93847384       7.96015136
N       -2.80777164       1.18180698       8.99123386
N       -3.07930142       1.79198896      10.19895550
C       -3.84368944       2.94268442      10.36181240
O       -4.27500066       3.60943142       9.42303247
C       -4.13411347       3.29255550      11.73819655
C       -3.55618479       2.93171322      12.93789487
C       -4.26329942       3.60063042      13.94577014
N       -5.24274382       4.35116954      13.44261570
N       -5.14193926       4.16466080      12.10804772
C       -6.07938221       4.84767495      11.24306446
C       -2.10288000       1.99820774       5.48116922
C       -1.84502105       3.46374701       5.32012160
H       -1.40228721       2.22961007      -0.72596792
H       -2.84652403       3.64381973       0.70086820
H       -3.18970848       3.08600441       3.06290270
H       -0.47323988      -0.25891763       2.64808794
H       -2.67128679      -2.27198500       4.83081309
H       -1.15740917      -1.83831744       4.04466656
H       -2.72620283      -1.40731104       3.30039783
H       -2.56394369      -0.86642387       7.04857234
H       -2.56007753       3.03823818       8.01000173
H       -2.97282670       1.17579854      10.99619157
H       -4.11307985       3.58261709      15.01748433
H       -6.54663954       4.11503897      10.58065256
H       -5.53289433       5.60597240      10.67766210
H       -6.85124934       5.32595181      11.85143110
H       -1.13077614       3.67393529       4.51924207
H       -1.40716863       3.88362104       6.23172900
H       -2.78015191       3.99814020       5.12669093
C       -2.43056452       2.07697336      13.21357361
C       -1.48785755       1.36112872      13.44445456
Br       0.03641990       0.20366848      13.81776953
C        0.88255236      -0.88255236       0.88255236
C        1.59220330      -0.30957956       1.93508712
C        2.38916728      -1.11584564       2.74411949
C        2.46920197      -2.49008951       2.50173289
C        1.76678019      -3.06868343       1.43362771
C        0.97007160      -2.25205972       0.62161819
N        1.86310230      -4.47652478       1.18699594
C        0.82192526      -5.32373929       0.80449527
C       -0.60076311      -4.92201413       0.60542808
C        1.31492510      -6.61300478       0.75180263
C        2.68588734      -6.58907790       1.09076848
C        3.59780713      -7.71575604       1.18498745
N        3.15948947      -8.90509320       0.91622981
N        4.02605870      -9.96708127       1.07710590
C        4.96757512     -10.08655694       2.09405421
O        5.20530706      -9.19518730       2.90697018
C        5.63938363     -11.36953464       2.15594725
C        5.79671168     -12.38915820       1.23992300
C        6.55881330     -13.38356638       1.86732029
N        6.88070275     -13.04145643       3.11436988
N        6.32977657     -11.81712959       3.26774162
C        6.48991677     -11.14251875       4.53768610
C        3.02102847      -5.25630170       1.30492679
C        4.38882874      -4.69710719       1.54295373
H        1.52922138       0.75705588       2.13376387
H        2.94041220      -0.67787366       3.57292609
H        3.05553330      -3.09576410       3.18731820
H        0.44846797      -2.65415493      -0.24021271
H       -1.25929703      -5.79346856       0.69594335
H       -0.75028348      -4.51188742      -0.39784565
H       -0.93057986      -4.19599553       1.35387395
H        0.73357890      -7.49685452       0.51565875
H        4.64065737      -7.50043836       1.46722171
H        3.71892903     -10.81346058       0.61242721
H        6.89824061     -14.33535914       1.47958152
H        5.50613778     -10.83548613       4.90070715
H        7.14650838     -10.28246524       4.38755521
H        6.94067059     -11.82953057       5.25843109
H        4.50495350      -3.69285840       1.12614160
H        5.15106997      -5.31479471       1.05665399
H        4.61359994      -4.67765363       2.61372948
C        5.34310324     -12.50025176      -0.12224351
C        4.96320617     -12.59329262      -1.26305796
Br       4.34894474     -12.74373182      -3.10765845
