198
Properties=species:S:1:pos:R:3 pbc="F F F"
C        1.79245639       1.79245639      -1.79245639
C        1.28996247       2.28033244      -2.99628716
C        2.09168832       3.09158305      -3.79557311
C        3.38829503       3.41591749      -3.38652392
C        3.90292871       2.91475854      -2.18111617
C        3.09310858       2.09664121      -1.38371180
N        5.23658450       3.24451930      -1.77523130
C        5.65795944       3.54332558      -0.47858688
C        4.78586433       3.60074364       0.73021681
C        6.99560240       3.88409672      -0.52974547
C        7.43721857       3.79014125      -1.86808597
C        8.76255553       4.07694413      -2.38876303
N        9.69506989       4.44676714      -1.56868753
N       10.92720520       4.77793646      -2.09481628
C       11.13180231       5.45160244      -3.29449359
O       10.22681067       5.73219853      -4.07816741
C       12.50480355       5.84013515      -3.54963889
C       13.71035423       5.41240900      -3.03274173
C       14.71209467       6.15143829      -3.67587909
N       14.19950916       7.00976077      -4.55697120
N       12.86705703       6.79907088      -4.47823193
C       11.99287677       7.58719336      -5.31976356
C        6.35301011       3.34311777      -2.61584115
C        6.35503978       2.94492185      -4.05864010
H        0.28031705       2.03802081      -3.31730359
H        1.70444258       3.48320846      -4.73327299
H        3.96400032       4.09655282      -4.00777453
H        3.47027289       1.65348729      -0.46836209
H        5.25267873       4.21548481       1.50833659
H        4.64567459       2.60181645       1.15402068
H        3.81245662       4.04938274       0.51283766
H        7.59495797       4.19796428       0.31711802
H        8.92002851       3.94673926      -3.47126174
H       11.66845151       4.80162731      -1.40445006
H       15.78621345       6.10594404      -3.55073586
H       11.22576319       8.05114461      -4.69513534
H       11.55170753       6.92568777      -6.06884561
H       12.57468551       8.36898823      -5.81467058
H        5.64278808       2.14222351      -4.26865398
H        7.33698245       2.56096658      -4.35428171
H        6.13289220       3.80750747      -4.69429545
C       14.00013204       4.39653734      -2.05415418
C       14.24282096       3.54574483      -1.23458711
Br      14.63522842       2.17008530       0.09058353
C       -1.79245639      -1.79245639      -1.79245639
C       -2.29062272      -2.99026757      -1.28569177
C       -3.10185822      -3.78949631      -2.08748994
C       -3.41590576      -3.38635782      -3.38847285
C       -2.90437445      -2.18712309      -3.90730588
C       -2.08633256      -1.38976817      -3.09736085
N       -3.22364439      -1.78734037      -5.24535033
C       -3.51205803      -0.49149579      -5.67631807
C       -3.56740456       0.72288702      -4.81187363
C       -3.84507991      -0.54869780      -7.01566688
C       -3.75657073      -1.89022734      -7.44864772
C       -4.03854179      -2.41718088      -8.77254003
N       -4.39777895      -1.60055399      -9.71219162
N       -4.72470846      -2.13212811     -10.94312137
C       -5.40437940      -3.32894756     -11.14457138
O       -5.69515179      -4.10542813     -10.23659670
C       -5.78618290      -3.59005553     -12.51833917
C       -5.34809230      -3.08304588     -13.72436678
C       -6.08496096      -3.72777661     -14.72667449
N       -6.95166779      -4.60057142     -14.21400191
N       -6.74852429      -4.51503867     -12.88079689
C       -7.54696940      -5.34650842     -12.00635587
C       -3.32061074      -2.63408290      -6.35727539
C       -2.93114864      -4.07923691      -6.34821618
H       -2.05633606      -3.30661974      -0.27268564
H       -3.50147358      -4.72246274      -1.69698770
H       -4.09681290      -4.00697558      -3.96453918
H       -1.63538646      -0.47940006      -3.47733575
H       -4.17460625       1.50185132      -5.28707202
H       -2.56679225       1.14151492      -4.66819303
H       -4.02319829       0.51410540      -3.83990881
H       -4.15020563       0.29639571      -7.62199431
H       -3.91394546      -3.50137641      -8.92270765
H       -4.73976160      -1.44613040     -11.68863688
H       -6.03224977      -3.60941195     -15.80123163
H       -8.01173812      -4.71446967     -11.24583534
H       -6.89267499      -6.09687255     -11.55669336
H       -8.32823108      -5.84021561     -12.58989763
H       -2.13403496      -4.28976129      -5.62986932
H       -2.54308974      -4.38311993      -7.32602107
H       -3.79888603      -4.70833593      -6.12747316
C       -4.32459228      -2.11235850     -14.01387278
C       -3.46741101      -1.29940782     -14.25633406
Br      -2.08142140       0.01506466     -14.64837344
C       -1.79245639       1.79245639       1.79245639
C       -2.82461486       1.21445959       2.52750760
C       -3.62266174       2.01801707       3.33816567
C       -3.38281458       3.39288707       3.41503479
C       -2.35282845       3.98087966       2.66509530
C       -1.55627857       3.16806769       1.84911531
N       -2.12117698       5.39241457       2.74274354
C       -0.87870986       6.02759500       2.77356704
C        0.44885943       5.34762537       2.75762522
C       -1.09324764       7.38274905       2.93344789
C       -2.48466170       7.61831473       2.99246937
C       -3.16384107       8.88922121       3.17520041
N       -2.45841794       9.97089374       3.28121288
N       -3.12222661      11.15688532       3.52084602
C       -4.23650991      11.30035997       4.34102846
O       -4.82240859      10.35301675       4.86175127
C       -4.64966616      12.66994544       4.57496599
C       -4.39202865      13.85190141       3.91157490
C       -5.07864989      14.86091190       4.59985026
N       -5.74326781      14.37519709       5.64777623
N       -5.48491937      13.04935617       5.61008431
C       -6.06340007      12.20425741       6.63217620
C       -3.10592193       6.38591392       2.82013318
C       -4.57153980       6.12939530       2.65766664
H       -3.01243228       0.14514666       2.47806249
H       -4.42572205       1.57369707       3.92150491
H       -3.98883204       3.97894335       4.10055228
H       -0.78048355       3.59137599       1.22026272
H        1.21984395       6.00666767       3.17300323
H        0.74994439       5.11063094       1.73278381
H        0.45045938       4.43667483       3.36278624
H       -0.31672772       8.13336321       3.02571331
H       -4.26515851       8.87585739       3.19701362
H       -2.56051128      11.97933918       3.33467843
H       -5.13163422      15.92136973       4.38988939
H       -5.26861673      11.61175553       7.09167088
H       -6.81636707      11.56687250       6.16300134
H       -6.53307048      12.82936406       7.39590978
H       -4.77367074       5.27775366       2.00224117
H       -5.06751655       6.98927377       2.19544042
H       -5.04126273       5.96174563       3.63168675
C       -3.61832185      14.10808611       2.72441560
C       -2.97034241      14.32264080       1.73016969
Br      -1.92261445      14.66955758       0.12255815
C        1.79245639      -1.79245639       1.79245639
C        3.16501220      -1.84045404       1.56111582
C        3.96955305      -2.63800475       2.37128668
C        3.40074133      -3.37885167       3.41114344
C        2.01648050      -3.34397562       3.63834729
C        1.21251568      -2.54296187       2.81798403
N        1.44147657      -4.11464200       4.70021652
C        0.41430043      -3.71092499       5.55464648
C       -0.26268291      -2.38184895       5.53722512
C        0.21256984      -4.71099651       6.48587824
C        1.10907853      -5.76892854       6.21743872
C        1.26309589      -7.01163977       6.95352704
N        0.49805437      -7.23798520       7.97448499
N        0.70762149      -8.39445360       8.69788286
C        1.95119611      -8.95367609       8.97302613
O        3.00506532      -8.52985329       8.50225800
C        1.92719046     -10.06997553       9.89741160
C        0.92171078     -10.91601934      10.31777484
C        1.50197350     -11.81896736      11.21847119
N        2.80319704     -11.58197683      11.38106727
N        3.04640029     -10.53195950      10.56600006
C        4.39239354     -10.00491406      10.50252609
C        1.82392727      -5.40769452       5.08034724
C        2.78805488      -6.25742939       4.31311746
H        3.61509696      -1.26165195       0.75889253
H        5.04321850      -2.67515810       2.20254742
H        4.06592753      -3.94494375       4.05745639
H        0.13413031      -2.52485371       2.93313825
H       -0.72660859      -2.17746340       6.50897214
H       -1.06322460      -2.36510450       4.79159046
H        0.43961173      -1.56627829       5.34311167
H       -0.49904037      -4.67224901       7.30259560
H        2.02283888      -7.72288239       6.59230824
H       -0.06735499      -8.63872952       9.30315435
H        1.04547541     -12.63733919      11.76007875
H        4.35873549      -8.92816333      10.68514431
H        4.80144325     -10.22989736       9.51490030
H        5.00450844     -10.48113951      11.27269637
H        2.77492397      -6.03648565       3.24225595
H        2.52977934      -7.31757620       4.40487520
H        3.80333807      -6.13029779       4.70105926
C       -0.46837168     -10.97294466       9.94625058
C       -1.63256573     -11.02061961       9.63509902
Br      -3.51496906     -11.09770598       9.13199326
C       -0.00445707       0.01189536      -1.78238275
H       -0.66409135       0.67374010      -2.43557963
H        0.65740317      -0.63156657      -2.45157240
C       -0.90989263      -0.90692880      -0.91072765
C        0.90977584       0.90977584      -0.90977584
C       -0.00465871       1.77757030       0.00794375
H       -0.66225468       2.44313916      -0.64384735
H        0.64322798       2.43503045       0.67728295
C       -1.78241447       0.00034974      -0.00472694
H       -2.45427497      -0.65498947       0.64260836
H       -2.43311707       0.67328779      -0.65473579
C       -0.91132561       0.90220522       0.91563759
C       -0.01476271      -0.02253852       1.78660255
H       -0.67934791      -0.69751639       2.42135241
H        0.63392994       0.61504881       2.47327442
C        0.01484550      -1.77751727      -0.01636693
H        0.67870853      -2.42144646      -0.68295456
H       -0.62264859      -2.45592969       0.64226336
C        1.78714474       0.01002794       0.00389507
H        2.44202412       0.67113390       0.66197326
H        2.45385902      -0.65136977      -0.64189061
C        0.91606151      -0.90478549       0.90901405
