129
Properties=species:S:1:pos:R:3 pbc="F F F"
C        0.00000000       0.00000000       0.00000000
C        0.88149847       0.88149847      -0.88149847
C        1.99675060       0.33410608      -1.51033662
C        2.79448789       1.14050832      -2.32655155
C        2.50849977       2.50241254      -2.48785755
C        1.37331877       3.03008892      -1.86529293
C        0.55960130       2.22499018      -1.06172611
N        3.27460254       3.32989956      -3.32332378
C        4.51489610       3.56453825      -3.06781549
S        5.50867601       3.02888094      -1.75704747
C        6.94868822       3.68391934      -2.41266330
C        8.28266458       3.51718033      -1.86103419
H        9.11752393       3.96925260      -2.38746495
C        8.51942107       3.01525600      -0.50869038
C        8.54049892       3.94625177       0.53766327
C        8.66467439       3.51119517       1.85715728
Br       8.65365889       4.77711150       3.26098492
C        8.77729940       2.15371993       2.14920498
C        8.77381217       1.22263757       1.11022067
C        8.64552190       1.65223945      -0.20969348
O        8.63496492       0.67396056      -1.16468100
C        6.56046689       4.42961276      -3.63538154
O        7.39731181       5.01723365      -4.29263707
N        5.23882195       4.33430242      -3.89969478
H        2.25125003      -0.71422624      -1.38016271
H        3.64862444       0.69937244      -2.83255295
H        1.11557376       4.07548963      -2.01468115
H       -0.32050874       2.65361230      -0.59015111
H        8.43468820       5.00786397       0.32571583
H        8.86107214       1.81057919       3.17678880
H        8.85666177       0.16125053       1.32959794
H        8.53221701       1.08547175      -2.03767694
H        4.82670027       4.74927230      -4.71916263
C       -0.88149847      -0.88149847      -0.88149847
C       -1.26410484      -2.14326729      -0.43382117
C       -2.08126835      -2.94269996      -1.23757945
C       -2.48735200      -2.50612706      -2.50529081
C       -2.11050194      -1.22844240      -2.92975627
C       -1.30805137      -0.41514214      -2.12312408
N       -3.33082991      -3.27474911      -3.32224686
C       -2.95161175      -4.41833257      -3.77730552
S       -1.45332416      -5.26045485      -3.58082540
C       -2.00433353      -6.68407781      -4.35685952
C       -1.26082034      -7.92718625      -4.47287251
H       -1.73468545      -8.76547895      -4.97407709
C        0.17209730      -8.01726936      -4.19819539
C        1.05569947      -7.75246631      -5.25232058
C        2.43114243      -7.72848857      -5.02136615
Br       3.60878070      -7.33250315      -6.44606302
C        2.94144023      -7.97458217      -3.74867240
C        2.06740994      -8.25548150      -2.69815751
C        0.69184870      -8.27622243      -2.92308109
O       -0.09361061      -8.54353366      -1.83646221
C       -3.36812718      -6.39323510      -4.86409892
O       -3.99071291      -7.23558856      -5.48088107
N       -3.78829487      -5.15280117      -4.53172312
H       -0.94106013      -2.51203219       0.53590582
H       -2.39479785      -3.91573031      -0.87002167
H       -2.45233791      -0.85985426      -3.89355238
H       -1.02975633       0.57633920      -2.46983753
H        0.67036169      -7.54011190      -6.24708613
H        4.01154045      -7.94382606      -3.56257692
H        2.45692738      -8.44418082      -1.70106091
H       -1.02544175      -8.52275958      -2.10716436
H       -4.70947776      -4.82043084      -4.76522661
C       -0.88149847       0.88149847       0.88149847
C       -2.25003904       0.63558509       0.95556917
C       -3.05226815       1.43628716       1.77299245
C       -2.50255125       2.50840122       2.48781739
C       -1.12357867       2.72778995       2.41733199
C       -0.31132943       1.91915253       1.61583563
N       -3.27804230       3.31144428       3.33833929
C       -4.23350132       4.03963445       2.87411407
S       -4.78327565       4.26227459       1.24905418
C       -6.14063950       5.20332301       1.70130835
C       -7.17589565       5.68334759       0.80163586
H       -7.99745659       6.25570547       1.22107943
C       -7.02466224       5.67095738      -0.65225217
C       -6.42095149       6.78236021      -1.25422428
C       -6.16367786       6.78023061      -2.62519620
Br      -5.31420425       8.27208388      -3.41650267
C       -6.50952269       5.68273993      -3.41044828
C       -7.12630323       4.57958084      -2.81965499
C       -7.38146227       4.57522265      -1.44923010
O       -7.97352201       3.44902602      -0.94894155
C       -6.04600770       5.41210675       3.16734674
O       -6.88193055       6.07254672       3.75270526
N       -4.98490955       4.77660120       3.71130841
H       -2.70172806      -0.17559855       0.39105698
H       -4.11495638       1.22203900       1.84355446
H       -0.67675044       3.53019194       2.99880216
H        0.75879965       2.10382319       1.57823113
H       -6.12862707       7.63844736      -0.65023809
H       -6.29872065       5.67249327      -4.47635139
H       -7.39532338       3.71724894      -3.42425796
H       -8.09329005       3.55354565       0.00852999
H       -4.80755089       4.78529653       4.70228779
C        0.88149847      -0.88149847       0.88149847
C        1.13210612      -2.19968133       0.50940585
C        1.94951056      -3.00021647       1.31182073
C        2.48739755      -2.50468147       2.50669085
C        2.24183021      -1.17286525       2.85400515
C        1.43984999      -0.35994082       2.04652678
N        3.33430755      -3.27572348       3.31779484
C        2.90893884      -4.34817773       3.89013327
S        1.34129583      -5.07952456       3.87378403
C        1.84553905      -6.48118969       4.71854213
C        1.02344033      -7.64850863       4.98893014
H        1.47242334      -8.48258238       5.51923576
C       -0.42962693      -7.64339028       4.82960409
C       -1.20359875      -7.23089633       5.92178984
C       -2.58755031      -7.11376862       5.79249397
Br      -3.61428758      -6.51973326       7.26433978
C       -3.21527305      -7.41196906       4.58511833
C       -2.45172169      -7.83942575       3.49852501
C       -1.06789637      -7.95379368       3.62155752
O       -0.39427402      -8.36331377       2.50456673
C        3.26348981      -6.26392282       5.09804856
O        3.86928038      -7.10538827       5.73251389
N        3.74661037      -5.08937237       4.63683642
H        0.70572733      -2.61234301      -0.40088384
H        2.15934371      -4.01989389       1.00131223
H        2.68639805      -0.76232896       3.75701754
H        1.26473684       0.67369858       2.33221640
H       -0.72491169      -6.97684824       6.86489978
H       -4.29160874      -7.30929096       4.47718032
H       -2.93299291      -8.06979830       2.55150897
H        0.55524567      -8.39738097       2.70273905
H        4.70571064      -4.81562258       4.77380199
