137
Properties=species:S:1:pos:R:3 pbc="F F F"
C        0.00000000       0.00000000       0.00000000
C        0.88149847       0.88149847      -0.88149847
C        1.99675060       0.33410608      -1.51033662
C        2.79448789       1.14050832      -2.32655155
C        2.50849977       2.50241254      -2.48785755
C        1.37331877       3.03008892      -1.86529293
C        0.55960130       2.22499018      -1.06172611
N        3.27460254       3.32989956      -3.32332378
C        4.51489610       3.56453825      -3.06781549
S        5.50867601       3.02888094      -1.75704747
C        6.94868822       3.68391934      -2.41266330
C        8.28266458       3.51718033      -1.86103419
H        9.11752393       3.96925260      -2.38746495
C        8.51942107       3.01525600      -0.50869038
C        8.54049892       3.94625177       0.53766327
C        8.66467439       3.51119517       1.85715728
C        8.77729940       2.15371993       2.14920498
C        8.77381217       1.22263757       1.11022067
C        8.64552190       1.65223945      -0.20969348
O        8.63496492       0.67396056      -1.16468100
C        6.56046689       4.42961276      -3.63538154
O        7.39731181       5.01723365      -4.29263707
N        5.23882195       4.33430242      -3.89969478
H        2.25125003      -0.71422624      -1.38016271
H        3.64862444       0.69937244      -2.83255295
H        1.11557376       4.07548963      -2.01468115
H       -0.32050874       2.65361230      -0.59015111
H        8.43468820       5.00786397       0.32571583
H        8.86107214       1.81057919       3.17678880
H        8.85666177       0.16125053       1.32959794
H        8.53221701       1.08547175      -2.03767694
H        4.82670027       4.74927230      -4.71916263
C        8.65628315       4.47552772       2.92654604
C        8.64925548       5.28315624       3.82215912
Br       8.63789234       6.58902324       5.27028973
C       -0.88149847      -0.88149847      -0.88149847
C       -1.32799866      -2.11044229      -0.40275236
C       -2.14497882      -2.90938959      -1.20717935
C       -2.48740888      -2.50678350      -2.50457748
C       -2.04690219      -1.26085172      -2.96094669
C       -1.24419202      -0.44740749      -2.15471808
N       -3.32901037      -3.27450082      -3.32431468
C       -2.97715982      -4.44770569      -3.72238433
S       -1.52021533      -5.33609927      -3.43828981
C       -2.09618334      -6.76706660      -4.18202092
C       -1.39676303      -8.04010937      -4.22400670
H       -1.88349437      -8.87893338      -4.71181374
C        0.02065544      -8.17214220      -3.89188068
C        0.95174298      -7.98021575      -4.92061465
C        2.31771050      -7.99790402      -4.63851876
C        2.77127525      -8.21392763      -3.33916196
C        1.84926600      -8.42241615      -2.31307892
C        0.48308247      -8.40126174      -2.58927554
O       -0.35128595      -8.59805406      -1.52426647
C       -3.42840901      -6.44593887      -4.75111331
O       -4.05957085      -7.28776446      -5.35984723
N       -3.81296884      -5.17918644      -4.48066388
H       -1.05498743      -2.45363094       0.59143187
H       -2.50857352      -3.85557953      -0.81639678
H       -2.33890257      -0.91692502      -3.94991696
H       -0.91584452       0.51929255      -2.52670269
H        0.61149132      -7.79188836      -5.93643929
H        3.83422900      -8.21536074      -3.11373079
H        2.19450624      -8.58718600      -1.29563459
H       -1.27110123      -8.55345123      -1.83081324
H       -4.71165646      -4.82239738      -4.76108136
C        3.26480682      -7.77086382      -5.69920784
C        4.05799999      -7.58071766      -6.58753493
Br       5.34052626      -7.27326739      -8.02388472
C       -0.88149847       0.88149847       0.88149847
C       -2.20729250       0.52301125       1.11088956
C       -3.00801758       1.32521507       1.92831511
C       -2.50443769       2.50690647       2.48742570
C       -1.16538580       2.84038383       2.26293098
C       -0.35253180       2.03276787       1.46101793
N       -3.27593905       3.31705625       3.33483057
C       -4.33569125       3.90818738       2.90337120
S       -5.04729292       3.92067968       1.32663182
C       -6.44456181       4.77673812       1.82397093
C       -7.59791682       5.07212350       0.99083878
H       -8.43091366       5.60728843       1.43603940
C       -7.57640570       4.93091235      -0.46395060
C       -7.14053903       6.02737648      -1.21882808
C       -7.00753550       5.91391009      -2.60273331
C       -7.31283168       4.71834086      -3.24935819
C       -7.76345701       3.62778778      -2.50501571
C       -7.89377784       3.73495845      -1.12128147
O       -8.32571142       2.61490934      -0.46701427
C       -6.24052768       5.13571997       3.24921354
O       -7.08159761       5.77316251       3.85242240
N       -5.07803769       4.65368429       3.74109718
H       -2.62586746      -0.37658641       0.66790545
H       -4.03406806       1.02503498       2.12144680
H       -0.74925695       3.73250498       2.72398262
H        0.68672910       2.30752257       1.30246119
H       -6.88080433       6.96114243      -0.72511043
H       -7.19790058       4.62256846      -4.32560650
H       -7.99953601       2.68984908      -3.00107074
H       -8.36931060       2.80161815       0.48443694
H       -4.81475447       4.77518183       4.70519891
C       -6.53118712       7.03898222      -3.36490450
C       -6.13224534       7.98123013      -4.00322287
Br      -5.48719024       9.50476530      -5.03532969
C        0.88149847      -0.88149847       0.88149847
C        1.51043263      -1.99668267       0.33407800
C        2.32664706      -2.79441940       1.14048131
C        2.48785790      -2.50850061       2.50241135
C        1.86519726      -1.37338603       3.03011732
C        1.06162994      -0.55966848       2.22501917
N        3.32332059      -3.27460292       3.32990237
C        3.06787037      -4.51492478       3.56445469
S        1.75719067      -5.50874944       3.02866431
C        2.41285183      -6.94876162       3.68365741
C        1.86130938      -8.28276019       3.51680952
H        2.38776225      -9.11761525       3.96886398
C        0.50900823      -8.51956579       3.01479342
C       -0.53739795      -8.54075782       3.94572755
C       -1.85685967      -8.66498436       3.51058759
C       -2.14882248      -8.77754784       2.15308899
C       -1.10978461      -8.77394685       1.22206683
C        0.21009732      -8.64560517       1.65175233
O        1.16514072      -8.63493655       0.67352921
C        3.63550459      -6.56051274       4.42944386
O        4.29277451      -7.39735364       5.01705438
N        3.89974702      -5.23884704       4.33422510
H        1.38033395      -2.25112908      -0.71427653
H        2.83272325      -3.64850126       0.69932533
H        2.01451023      -1.11569277       4.07554154
H        0.58997937       0.32038958       2.65366488
H       -0.32551793      -8.43499617       5.00735810
H       -3.17638164      -8.86136010       1.80988407
H       -1.32909581      -8.85674782       0.16066234
H        2.03810696      -8.53216200       1.08509674
H        4.71916710      -4.82670201       4.74926610
C       -2.92630459      -8.65671055       4.47485887
C       -3.82196471      -8.64978124       5.28243607
Br      -5.27017138      -8.63857713       6.58822010
