170
Properties=species:S:1:pos:R:3 pbc="F F F"
C        6.11226968       6.55264089      -5.73795673
C        5.27926477       6.10687483      -4.99214817
C        4.26916180       5.56228665      -4.07620144
O        4.29025041       4.13912748      -4.16949818
C        3.44555641       3.42754382      -3.36072356
C        2.57748263       3.99264379      -2.42063964
C        1.75711772       3.17571412      -1.63422771
C        1.79145082       1.79145082      -1.79145082
C        2.62919846       1.21063264      -2.73772668
C        3.45705608       2.03005863      -3.51527250
C        4.35725560       1.41090697      -4.50967464
N        4.07059845       0.27801660      -5.06858490
N        5.00132589      -0.17613490      -5.95723871
C        4.69453718      -1.18319962      -6.86325634
O        3.58345187      -1.69104025      -6.98685996
C        5.82646029      -1.57675915      -7.68070860
C        5.90816641      -2.46772264      -8.73522867
C        7.26585180      -2.50856927      -9.14138325
C        8.00070861      -3.20656257     -10.11648699
C        9.38115736      -2.97942734     -10.19579619
Br      10.39601745      -3.91735381     -11.49005254
C       10.02488227      -2.08198344      -9.33975897
C        9.30545588      -1.37414251      -8.36940379
C        7.93535417      -1.62064943      -8.30760151
O        7.06680223      -1.04348826      -7.43111252
H        6.85023488       6.94277615      -6.39649287
H        3.27969956       5.94166112      -4.35713972
H        4.51114150       5.87637834      -3.05417050
H        2.50815623       5.06514802      -2.26884736
H        1.09425063       3.63104178      -0.90159818
H        2.65284678       0.13080172      -2.86668322
H        5.27109447       1.97161934      -4.77685534
H        5.93199409       0.22839818      -5.97516206
H        5.07728911      -3.02827739      -9.14230642
H        7.50664693      -3.90769420     -10.78205224
H       11.09882704      -1.92554178      -9.41804311
H        9.78672813      -0.67668737      -7.69461358
C       -5.75453446      -6.08306266      -6.56527018
C       -5.02276627      -5.23959138      -6.11593011
C       -4.12371178      -4.21651657      -5.56742153
O       -4.16413071      -4.29116542      -4.14357994
C       -3.36017469      -3.44309101      -3.43055809
C       -2.47256358      -2.52185468      -3.99634780
C       -1.68623340      -1.70260958      -3.17821658
C       -1.79145082      -1.79145082      -1.79145082
C       -2.68574065      -2.68318063      -1.20863650
C       -3.46304322      -3.50949673      -2.02984726
C       -4.40179429      -4.46670833      -1.40933460
N       -4.92868524      -4.24079154      -0.24772317
N       -5.76677852      -5.21880920       0.20315803
C       -6.64563748      -4.98103663       1.25208021
O       -6.78969551      -3.89380781       1.80423174
C       -7.40774188      -6.15525173       1.63258386
C       -8.42545743      -6.30680673       2.55659172
C       -8.78172595      -7.67902470       2.56208487
C       -9.70415163      -8.47318140       3.26670000
C       -9.74298815      -9.84673928       2.99220122
Br     -10.96551319     -10.94066197       3.93745898
C       -8.89815900     -10.42670501       2.04220622
C       -7.98029163      -9.64778516       1.32735963
C       -7.95786662      -8.28588383       1.62144420
O       -7.13422607      -7.36606898       1.04586856
H       -6.40046054      -6.83038862      -6.95865474
H       -4.45303939      -3.22522285      -5.90023817
H       -3.10594733      -4.40975646      -5.92598656
H       -2.36260954      -2.40925574      -5.07028632
H       -0.99456187      -0.99776759      -3.63456113
H       -2.77423115      -2.74958415      -0.12651643
H       -4.65690322      -5.36936352      -1.99330242
H       -5.76665029      -6.13466866      -0.23423538
H       -8.84081768      -5.51164343       3.16114297
H      -10.36065261      -8.02880284       4.00845048
H       -8.94419475     -11.49660943       1.84947580
H       -7.31489414     -10.07918328       0.58942308
C       -5.96284571       5.84021271       6.59980888
C       -5.36187426       4.93561564       6.08079786
C       -4.62139746       3.83515442       5.45109801
O       -4.12399701       4.28327112       4.19160794
C       -3.36425324       3.41636213       3.45320843
C       -3.01038243       2.12439136       3.85599227
C       -2.22103822       1.31675090       3.02927043
C       -1.79145082       1.79145082       1.79145082
C       -2.15275388       3.06377415       1.36102974
C       -2.93329944       3.87369725       2.19539052
C       -3.30396883       5.23047514       1.74339324
N       -3.41467472       5.51745616       0.48506908
N       -3.75106126       6.81283796       0.21853048
C       -4.22096697       7.18733678      -1.03370986
O       -4.43053375       6.40717259      -1.95843475
C       -4.46416058       8.61297733      -1.14672816
C       -5.00339407       9.35439562      -2.18211725
C       -4.96737713      10.71430881      -1.78302017
C       -5.33501497      11.94071318      -2.36509511
C       -5.11532439      13.11505296      -1.63285115
Br      -5.58778898      14.78048927      -2.39956208
C       -4.55206746      13.08499509      -0.35440475
C       -4.18828799      11.87125844       0.24117073
C       -4.41260934      10.71833741      -0.50864051
O       -4.11923862       9.44823206      -0.11304419
H       -6.49142532       6.64203863       7.05603994
H       -5.29202187       2.98003810       5.30644044
H       -3.78905933       3.54831626       6.10431475
H       -3.32882430       1.70723586       4.80609144
H       -1.94751134       0.31768242       3.36169683
H       -1.82401499       3.43388144       0.39243530
H       -3.51115587       5.98124209       2.52717120
H       -3.67314978       7.52096720       0.94143734
H       -5.36197034       8.94748923      -3.11814143
H       -5.76981452      11.97062662      -3.35943617
H       -4.38747302      14.01085436       0.19300099
H       -3.74747969      11.82747978       1.22969487
C        6.05590652      -6.57557906       5.77138172
C        5.20323070      -6.12210316       5.05295390
C        4.16871481      -5.56896093       4.16997415
O        4.29170080      -4.14794367       4.15923160
C        3.44067200      -3.43331162       3.35984018
C        2.47145662      -3.99630993       2.52299951
C        1.65329935      -3.17709002       1.73667019
C        1.79145082      -1.79145082       1.79145082
C        2.73198368      -1.21021832       2.63535579
C        3.55679376      -2.03305414       3.41253932
C        4.56549902      -1.41493436       4.29740383
N        4.39621725      -0.22950931       4.79147339
N        5.41666156       0.21513430       5.58090243
C        5.24384039       1.30003076       6.43078426
O        4.18100424       1.89346589       6.59173324
C        6.45533893       1.66516221       7.14023303
C        6.67202290       2.61657055       8.12022008
C        8.05504453       2.58694209       8.43056334
C        8.90309990       3.29410116       9.30163429
C       10.26736366       2.97426418       9.30442672
Br      11.43305029       3.92146618      10.45713207
C       10.78642233       1.97761537       8.47385084
C        9.95340431       1.25986639       7.60717924
C        8.60199173       1.59941095       7.61972546
O        7.63605866       1.02870263       6.84707046
H        6.81146129      -6.97271363       6.40532897
H        3.17879826      -5.85665086       4.54305129
H        4.31511535      -5.96734794       3.15922705
H        2.31974756      -5.06882017       2.45358388
H        0.91054440      -3.63168719       1.08465899
H        2.83708646      -0.12866649       2.68457877
H        5.45655766      -2.02065578       4.54235571
H        6.31703114      -0.25306198       5.56546121
H        5.91192317       3.26133015       8.54072511
H        8.50616049       4.07188613       9.94673060
H       11.85032321       1.75006737       8.49107254
H       10.33719997       0.48604063       6.95349500
C       -0.00445707       0.01189536      -1.78238275
H       -0.66409135       0.67374010      -2.43557963
H        0.65740317      -0.63156657      -2.45157240
C       -0.90989263      -0.90692880      -0.91072765
C        0.90977584       0.90977584      -0.90977584
C       -0.00465871       1.77757030       0.00794375
H       -0.66225468       2.44313916      -0.64384735
H        0.64322798       2.43503045       0.67728295
C       -1.78241447       0.00034974      -0.00472694
H       -2.45427497      -0.65498947       0.64260836
H       -2.43311707       0.67328779      -0.65473579
C       -0.91132561       0.90220522       0.91563759
C       -0.01476271      -0.02253852       1.78660255
H       -0.67934791      -0.69751639       2.42135241
H        0.63392994       0.61504881       2.47327442
C        0.01484550      -1.77751727      -0.01636693
H        0.67870853      -2.42144646      -0.68295456
H       -0.62264859      -2.45592969       0.64226336
C        1.78714474       0.01002794       0.00389507
H        2.44202412       0.67113390       0.66197326
H        2.45385902      -0.65136977      -0.64189061
C        0.91606151      -0.90478549       0.90901405
