129
Properties=species:S:1:pos:R:3 pbc="F F F"
C        0.00000000       0.00000000       0.00000000
C        0.87191663       0.87191663      -0.87191663
C        2.24108936       0.84354237      -0.84330248
C        2.79389770       1.78133797      -1.76788771
C        1.82813455       2.47401810      -2.48146443
S        0.24809505       1.99239490      -1.97347081
C        1.94111190       3.49066813      -3.47091944
C        2.81647745       3.46957476      -4.49433057
C        3.82220847       2.40685519      -4.83981638
C        3.94392363       2.15889134      -6.34203404
C        4.14628079       3.46500164      -7.09907335
C        2.99158349       4.39299473      -6.83920604
C        2.27854016       4.92802481      -7.84834728
C        1.11414119       5.74458499      -7.73245094
C        0.09523149       5.77197124      -6.79028113
C       -0.91286962       6.74384060      -7.07085666
C       -0.64264403       7.40850724      -8.23585731
Br      -1.74638672       8.74695904      -8.94221270
S        0.78110725       6.89273370      -8.98539065
C        2.73576101       4.66431623      -5.39411232
O        2.50917548       5.78732766      -4.96223229
H        2.82532771       0.20198964      -0.19540043
H        3.85777976       1.94346261      -1.89308633
H        1.24438212       4.32575224      -3.38353944
H        3.57951895       1.44935585      -4.36863560
H        4.79903568       2.71835469      -4.44833969
H        4.78899855       1.48721011      -6.53315554
H        3.04272642       1.64965308      -6.70782217
H        5.07976948       3.94678177      -6.78212627
H        4.25173663       3.24492156      -8.16807672
H        2.59783381       4.70638886      -8.86608531
H        0.06442756       5.12774612      -5.92063076
H       -1.77795389       6.92657610      -6.44573105
C       -0.87191663      -0.87191663      -0.87191663
C       -0.77802346      -0.91203949      -2.23787127
C       -1.73321481      -1.81772016      -2.79218841
C       -2.50465879      -2.44968031      -1.82927798
S       -2.07322457      -1.88772352      -0.25301266
C       -3.56232904      -3.39475226      -1.94561817
C       -3.55058857      -4.45984094      -2.76995328
C       -2.46017534      -4.90380672      -3.70489799
C       -2.28096386      -6.42016236      -3.74372280
C       -3.61180498      -7.12418381      -3.97436698
C       -4.57899655      -6.76462702      -2.88016068
C       -5.19584600      -7.71128792      -2.14777833
C       -6.05939791      -7.50011544      -1.03166376
C       -6.08814081      -6.50872536      -0.06061769
C       -7.11881683      -6.69351612       0.91050530
C       -7.82658033      -7.83796058       0.66282038
Br      -9.24841611      -8.42566055       1.73129164
S       -7.28212799      -8.67996305      -0.69714056
C       -4.79060728      -5.29757260      -2.70600968
O       -5.90040304      -4.80290738      -2.55542500
H       -0.07870204      -0.32444098      -2.81957476
H       -1.85125529      -1.98735583      -3.85571759
H       -4.42384361      -3.23416362      -1.29566657
H       -1.49308969      -4.46665914      -3.43776157
H       -2.70591406      -4.54667765      -4.71313835
H       -1.58062362      -6.68388975      -4.54485083
H       -1.83313485      -6.76465058      -2.80241625
H       -4.03312790      -6.83129904      -4.94425057
H       -3.43986790      -8.20621951      -4.01864749
H       -5.00981203      -8.75276700      -2.40772896
H       -5.40407561      -5.66976617      -0.03896265
H       -7.31093315      -6.01872165       1.73530154
C       -0.87191663       0.87191663       0.87191663
C       -2.24038370       0.87517456       0.81237595
C       -2.79308599       1.80455013       1.74548727
C       -1.82862668       2.45923679       2.49575361
S       -0.24854076       1.95333968       2.01208032
C       -1.94144138       3.45603826       3.50521984
C       -2.83999520       3.43211792       4.50826967
C       -3.87655792       2.38504545       4.80727668
C       -4.03769495       2.10671736       6.30043670
C       -4.22817951       3.39999994       7.08217634
C       -3.04764410       4.30714760       6.86899255
C       -2.34595538       4.80344172       7.90551515
C       -1.16144720       5.59580678       7.83392314
C       -0.12112041       5.62097060       6.91539285
C        0.90163282       6.56333048       7.24012998
C        0.61988690       7.20799880       8.41360862
Br       1.73671047       8.50517086       9.17432462
S       -0.83152685       6.70811698       9.11958779
C       -2.75324278       4.60452265       5.43642412
O       -2.49214583       5.73140089       5.03518871
H       -2.82386419       0.26150234       0.13735125
H       -3.85568058       1.98789894       1.85074919
H       -1.22460348       4.27687042       3.45219991
H       -3.64451577       1.43296060       4.32003403
H       -4.83714322       2.72715784       4.40142901
H       -4.90153538       1.45026758       6.45756124
H       -3.15649622       1.56924529       6.67446017
H       -5.14336644       3.90967759       6.75563348
H       -4.36264455       3.15876039       8.14332996
H       -2.69302538       4.56662075       8.91066185
H       -0.08490770       4.99561587       6.03228087
H        1.78447422       6.74023088       6.63859659
C        0.87191663      -0.87191663       0.87191663
C        0.43630459      -1.46376526       2.02786437
C        1.48038949      -2.21945565       2.64327824
C        2.66548164      -2.19359481       1.92454063
S        2.49214057      -1.20199561       0.51982459
C        3.93331530      -2.78602445       2.18335972
C        4.11476356      -4.04799580       2.61762343
C        3.07462392      -5.09682675       2.89742939
C        3.49594025      -6.49604521       2.45286356
C        4.87984001      -6.84688472       2.98363104
C        5.88722131      -5.84372142       2.49284152
C        6.99631489      -6.22643444       1.83216292
C        7.97601093      -5.37342465       1.24174154
C        7.87777841      -4.11473736       0.66496808
C        9.11955724      -3.62183188       0.16043852
C       10.12124983      -4.53536319       0.34510751
Br      11.89054556      -4.25400335      -0.20176390
S        9.60217640      -5.95281573       1.10423947
C        5.55012528      -4.42656855       2.81749573
O        6.37602169      -3.63285819       3.24985554
H       -0.56516248      -1.36100919       2.42687106
H        1.36342260      -2.75061560       3.58029051
H        4.80512698      -2.15939922       1.98914761
H        2.12478322      -4.86875583       2.40397136
H        2.88022232      -5.10800408       3.97750365
H        2.76543202      -7.22883279       2.81509940
H        3.48934557      -6.55428001       1.35657609
H        4.87544261      -6.85237132       4.08086358
H        5.13720022      -7.86366524       2.66386944
H        7.16730308      -7.29515806       1.70784685
H        6.95477721      -3.55181342       0.60621381
H        9.24890064      -2.65483428      -0.30938167
