158
Properties=species:S:1:pos:R:3 pbc="F F F"
C        1.78182065       1.78182065      -1.78182065
C        3.15099339       1.75344640      -1.75320650
C        3.70380173       2.69124200      -2.67779173
C        2.73803858       3.38392212      -3.39136845
S        1.15799907       2.90229892      -2.88337484
C        2.85101593       4.40057215      -4.38082347
C        3.72638148       4.37947879      -5.40423459
C        4.73211250       3.31675922      -5.74972041
C        4.85382766       3.06879536      -7.25193806
C        5.05618482       4.37490567      -8.00897737
C        3.90148751       5.30289875      -7.74911006
C        3.18844418       5.83792884      -8.75825130
C        2.02404521       6.65448901      -8.64235497
C        1.00513551       6.68187526      -7.70018516
C       -0.00296560       7.65374463      -7.98076069
C        0.26726000       8.31841127      -9.14576133
S        1.69101128       7.80263773      -9.89529468
C        3.64566503       5.57422026      -6.30401635
O        3.41907950       6.69723169      -5.87213631
H        3.73523173       1.11189367      -1.10530445
H        4.76768378       2.85336664      -2.80299036
H        2.15428615       5.23565627      -4.29344347
H        4.48942298       2.35925987      -5.27853963
H        5.70893970       3.62825872      -5.35824371
H        5.69890258       2.39711414      -7.44305956
H        3.95263044       2.55955711      -7.61772620
H        5.98967350       4.85668580      -7.69203029
H        5.16164065       4.15482559      -9.07798074
H        3.50773784       5.61629289      -9.77598934
H        0.97433158       6.03765014      -6.83053478
H       -0.86804987       7.83648012      -7.35563507
C       -0.58125786       9.34736507      -9.68878206
C       -1.29189156      10.20911389     -10.14356192
Br      -2.44092616      11.60248884     -10.87890249
C       -1.78182065      -1.78182065      -1.78182065
C       -3.15089735      -1.76496024      -1.74178869
C       -3.70362279      -2.69969255      -2.66952012
C       -2.73814338      -3.37854101      -3.39664476
S       -1.15796058      -2.88808537      -2.89762688
C       -2.85095754      -4.38796948      -4.39348452
C       -3.73486656      -4.36572693      -5.40950137
C       -4.75205805      -3.30854071      -5.73799336
C       -4.88816494      -3.04932316      -7.23707298
C       -5.08607357      -4.35082748      -8.00316681
C       -3.92173178      -5.27136972      -7.76039482
C       -3.21267780      -5.79224572      -8.77970080
C       -2.04073131      -6.60010641      -8.68005147
C       -1.01390560      -6.62679528      -7.74649505
C       -0.00024341      -7.58800302      -8.04329328
C       -0.27461691      -8.24533289      -9.21148280
S       -1.70866025      -7.73519818      -9.94508525
C       -3.65180631      -5.55237198      -6.31972335
O       -3.41250364      -6.67696982      -5.89897404
H       -3.73500090      -1.13355648      -1.08387247
H       -4.76713999      -2.86954684      -2.78735396
H       -2.14673232      -5.21797217      -4.31868138
H       -4.51332633      -2.35295623      -5.26093992
H       -5.72304992      -3.63126390      -5.34112831
H       -5.74024486      -2.38308676      -7.41574466
H       -3.99420187      -2.52970738      -7.60600450
H       -6.01295257      -4.84285396      -7.68258306
H       -5.20212594      -4.12289722      -9.06942382
H       -3.54214403      -5.56493995      -9.79293608
H       -0.98120351      -5.98946474      -6.87184825
H        0.87142486      -7.76870756      -7.42678262
C        0.57777732      -9.26279160      -9.76987500
C        1.29165749     -10.11491327     -10.23752846
Br       2.44594134     -11.49272194     -10.99368456
C       -1.78182065       1.78182065       1.78182065
C       -1.66450929       3.14493835       1.84819865
C       -2.61358562       3.69851471       2.76073513
C       -3.43232863       2.74133420       3.33966632
S       -2.99416226       1.16425333       2.78525724
C       -4.47925464       2.85637281       4.29678410
C       -5.44125683       3.79866973       4.27016830
C       -5.64937926       4.89092255       3.25829031
C       -7.12057195       5.12968178       2.92430735
C       -7.95003580       5.29958777       4.19044429
C       -7.82748353       4.07336696       5.05264584
C       -8.91378774       3.39785562       5.47298097
C       -8.92764626       2.17880690       6.21443603
C       -8.05607125       1.09869389       6.23243079
C       -8.46529683       0.05228671       7.11395617
C       -9.65316957       0.35813336       7.72012967
S      -10.27413953       1.85927671       7.25552744
C       -6.42326271       3.70346976       5.39716916
O       -6.08375634       3.37731271       6.52737845
H       -0.93883727       3.72344966       1.29014292
H       -2.68171188       4.75599714       2.98633176
H       -4.49308037       2.10372990       5.08657561
H       -5.13073020       4.67811095       2.31838133
H       -5.21871369       5.81722148       3.65950696
H       -7.21170119       6.02669056       2.30068453
H       -7.50745561       4.28949457       2.33296357
H       -7.60787137       6.17698044       4.75353778
H       -8.99280824       5.49102146       3.91061728
H       -9.89183923       3.79882671       5.20935413
H       -7.14846287       1.04995823       5.64409541
H       -7.91016405      -0.86303330       7.27693458
C      -10.31744768      -0.51521244       8.65265403
C      -10.87378060      -1.24663955       9.43364319
Br     -11.77332388      -2.42929532      10.69643661
C        1.78182065      -1.78182065       1.78182065
C        1.35192937      -2.94784795       2.35786897
C        2.38898470      -3.55087624       3.13297452
C        3.57575502      -2.83509542       3.10247871
S        3.38700787      -1.40323502       2.15342995
C        4.82865477      -3.06760208       3.73615469
C        5.44289349      -4.26441056       3.80279081
C        4.98982410      -5.57859089       3.23017713
C        6.13161277      -6.40344404       2.63950427
C        7.28537124      -6.52871959       3.62597702
C        7.79613549      -5.16292755       3.99443329
C        9.09478578      -4.83623385       3.85360470
C        9.68320222      -3.55640675       4.08128022
C        9.18234237      -2.27023372       3.93461984
C       10.13190962      -1.25084897       4.24878113
C       11.33748511      -1.79474456       4.59920293
S       11.34624579      -3.48388117       4.55881673
C        6.75178183      -4.24144612       4.53067368
O        6.93334609      -3.53854034       5.51656106
H        0.35295828      -3.35125235       2.24821922
H        2.26060435      -4.46777881       3.69565762
H        5.31516171      -2.19451151       4.17371266
H        4.24272795      -5.44235376       2.44214077
H        4.50942695      -6.15476214       4.03125304
H        5.76183911      -7.40126751       2.37596967
H        6.48282608      -5.93758778       1.70949990
H        6.95475655      -7.05118138       4.53245166
H        8.07361185      -7.14432999       3.17650514
H        9.77713178      -5.61289242       3.50999586
H        8.16929606      -2.05282664       3.62039380
H        9.92503979      -0.18864593       4.21037960
C       12.49022885      -1.00885757       4.95580286
C       13.45565174      -0.35067722       5.25445530
Br      15.01665889       0.71354475       5.73735103
C       -0.00445707       0.01189536      -1.78238275
H       -0.66409135       0.67374010      -2.43557963
H        0.65740317      -0.63156657      -2.45157240
C       -0.90989263      -0.90692880      -0.91072765
C        0.90977584       0.90977584      -0.90977584
C       -0.00465871       1.77757030       0.00794375
H       -0.66225468       2.44313916      -0.64384735
H        0.64322798       2.43503045       0.67728295
C       -1.78241447       0.00034974      -0.00472694
H       -2.45427497      -0.65498947       0.64260836
H       -2.43311707       0.67328779      -0.65473579
C       -0.91132561       0.90220522       0.91563759
C       -0.01476271      -0.02253852       1.78660255
H       -0.67934791      -0.69751639       2.42135241
H        0.63392994       0.61504881       2.47327442
C        0.01484550      -1.77751727      -0.01636693
H        0.67870853      -2.42144646      -0.68295456
H       -0.62264859      -2.45592969       0.64226336
C        1.78714474       0.01002794       0.00389507
H        2.44202412       0.67113390       0.66197326
H        2.45385902      -0.65136977      -0.64189061
C        0.91606151      -0.90478549       0.90901405
