189
Properties=species:S:1:pos:R:3 pbc="F F F"
C        0.00000000       0.00000000       0.00000000
N        6.84163943       7.91851987      -8.25215363
C        6.33166936       7.10586820      -7.61626701
C        5.70872262       6.11318503      -6.83950869
C        5.54221844       6.20536393      -5.50576515
N        6.01378295       7.21788415      -4.70361417
O        4.84025791       5.22502441      -4.80304494
C        4.05884841       4.30052464      -5.48639177
C        4.14048799       4.13733541      -6.81953082
C        3.25358006       3.18960580      -7.59174118
C        2.46618994       2.22965175      -6.70169123
C        1.96619155       2.92869550      -5.44245456
C        3.12947320       3.52332178      -4.66852787
C        3.33537362       3.32870323      -3.35082150
C        2.49302386       2.49451721      -2.49109799
C        1.39946027       3.04733463      -1.81743806
C        0.59373608       2.24029554      -1.01029020
C        0.88204012       0.88204012      -0.88204012
C        1.96705916       0.32136027      -1.55274403
C        2.77278005       1.12900797      -2.35788589
C        5.14478589       4.93761198      -7.61819640
H        4.58351496       5.35908216      -8.46681283
C        6.26239679       4.04572972      -8.16737064
C        6.49817436       3.98156607      -9.55061608
C        7.51575445       3.17161025     -10.06161043
C        8.30749824       2.42273866      -9.19404667
C        8.09422838       2.47704623      -7.81939260
C        7.07755986       3.28607341      -7.30800324
H        6.82140810       7.72072416      -5.06287870
H        6.11773847       6.92297403      -3.73613648
H        2.55022871       3.78860449      -8.18437423
H        3.84136382       2.59636427      -8.30106553
H        1.62135539       1.81528098      -7.26434711
H        3.10605709       1.38250373      -6.42176744
H        1.39092943       2.20917672      -4.85188083
H        1.27002658       3.73346080      -5.71453544
H        4.19543337       3.76240268      -2.84601161
H        1.16928774       4.10502086      -1.91909074
H       -0.25310970       2.67922076      -0.49032502
H        2.19344126      -0.73721260      -1.45774415
H        3.61629036       0.68701059      -2.88401780
H        5.89341091       4.56272094     -10.24433828
H        7.68323202       3.13421538     -11.13495372
H        8.71079889       1.89608755      -7.13852241
H        6.92427253       3.31469270      -6.23053056
C        9.35414121       1.58633551      -9.72184234
C       10.23070470       0.88584787     -10.16387121
Br      11.64803372      -0.24678139     -10.87859451
N       -6.86081463      -7.84903293      -8.30246538
C       -6.35893437      -7.04307387      -7.65179633
C       -5.74586963      -6.05856597      -6.85698074
C       -5.50893318      -6.20552215      -5.53889219
N       -5.89136532      -7.27720341      -4.76671254
O       -4.82014504      -5.22587843      -4.82230379
C       -4.11850598      -4.23220901      -5.49504983
C       -4.27411858      -4.01021117      -6.81302447
C       -3.47276103      -2.98389365      -7.57827236
C       -2.68844484      -2.02922020      -6.67986787
C       -2.09371853      -2.76145127      -5.48217181
C       -3.18746551      -3.44935383      -4.68450351
C       -3.33645983      -3.32798597      -3.35045255
C       -2.49285704      -2.49460506      -2.49117696
C       -1.34208717      -3.02359442      -1.89855138
C       -0.53635444      -2.21662601      -1.09134137
C       -0.88204012      -0.88204012      -0.88204012
C       -2.02451151      -0.34492152      -1.47173043
C       -2.83011212      -1.15259213      -2.27696966
C       -5.27785269      -4.82072938      -7.60201221
H       -4.74019303      -5.17296546      -8.49625146
C       -6.46250052      -3.96058426      -8.05241238
C       -6.76968314      -3.84267934      -9.41799404
C       -7.84874721      -3.06109434      -9.83913359
C       -8.63092604      -2.39461501      -8.89874252
C       -8.34709355      -2.50340094      -7.54017272
C       -7.26896329      -3.28412365      -7.11854957
H       -6.69111461      -7.80204233      -5.11185402
H       -5.96086544      -7.03408255      -3.78190099
H       -2.77217905      -3.51830595      -8.23272243
H       -4.12264500      -2.38768352      -8.22846511
H       -1.89330999      -1.54703798      -7.26063551
H       -3.35304925      -1.22924428      -6.32803472
H       -1.52453910      -2.04300097      -4.88444691
H       -1.37457020      -3.51671211      -5.82674052
H       -4.14874871      -3.82746462      -2.82763433
H       -1.06733329      -4.06248196      -2.06358408
H        0.35521997      -2.63699213      -0.63466392
H       -2.29585749       0.69535513      -1.31347045
H       -3.71881201      -0.72870230      -2.73980444
H       -6.17333887      -4.35940507     -10.16772620
H       -8.07108080      -2.98119792     -10.90012240
H       -8.95584794      -1.98684932      -6.80271159
H       -7.06099699      -3.35616827      -6.05233053
C       -9.74107625      -1.58729610      -9.33394671
C      -10.67082706      -0.91116651      -9.69843021
Br     -12.17415547       0.18207784     -10.28776921
N       -8.38281546       7.71868773       6.91080975
C       -7.56070317       7.19084666       6.30225473
C       -6.55646352       6.54606987       5.55888295
C       -6.08635699       5.31741589       5.84957464
N       -6.44524020       4.55426865       6.93577241
O       -5.14878860       4.69624948       5.02328918
C       -4.90178257       5.19461677       3.74936548
C       -5.33643133       6.40556448       3.35535841
C       -5.14041279       6.93862893       1.95588532
C       -4.16125260       6.11495868       1.12132164
C       -4.33492300       4.62253687       1.37988174
C       -4.15090395       4.31496769       2.85545122
C       -3.33664764       3.35038051       3.32787020
C       -2.49342431       2.49095938       2.49425537
C       -2.97914130       1.27064396       2.01444772
C       -2.17166888       0.46410122       1.20855172
C       -0.88204012       0.88204012       0.88204012
C       -0.39085538       2.09833452       1.35197355
C       -1.19794563       2.90300238       2.15872590
C       -6.07630335       7.29575899       4.32853193
H       -6.97636751       7.63854582       3.79449662
C       -5.24130082       8.52081494       4.71338138
C       -5.73696623       9.81410227       4.47928802
C       -4.98338361      10.93817060       4.82742093
C       -3.73072199      10.77826162       5.41529996
C       -3.22398632       9.50518842       5.66149247
C       -3.97634071       8.38146576       5.31383005
H       -6.79468341       5.07212924       7.73819831
H       -5.73273942       3.86940087       7.17470870
H       -6.11754904       6.94957448       1.45608391
H       -4.78444758       7.97462454       1.97972151
H       -4.30993157       6.33371770       0.05733421
H       -3.13287460       6.41248476       1.36496888
H       -3.63089401       4.07653478       0.74455819
H       -5.34044212       4.30559325       1.07198745
H       -3.22573047       3.18166661       4.39645058
H       -3.98584302       0.94416237       2.26339394
H       -2.55772070      -0.48262172       0.84133710
H        0.61251037       2.42900215       1.09748104
H       -0.81303218       3.85434348       2.51994310
H       -6.71540885       9.95981019       4.02525110
H       -5.38300185      11.93116022       4.63823905
H       -2.24800550       9.37556729       6.12183605
H       -3.56330725       7.39390215       5.51228640
C       -2.95380276      11.93726894       5.77124736
C       -2.30313291      12.90793757       6.06935330
Br      -1.25105479      14.47742665       6.55136541
N        8.10457857      -8.08812301       6.81961137
C        7.27924560      -7.49319574       6.28136323
C        6.27107178      -6.76647074       5.62387382
C        6.18741439      -5.42196705       5.64396609
N        7.00313892      -4.57511655       6.35702580
O        5.21225786      -4.75472956       4.90133984
C        4.50496088      -5.42845065       3.91235330
C        4.52968251      -6.76898221       3.79868951
C        3.82605113      -7.51738859       2.69148731
C        2.85434664      -6.65127741       1.89190887
C        3.41941309      -5.25371003       1.66421849
C        3.74119238      -4.58907774       2.99105273
C        3.33109209      -3.35137759       3.33242867
C        2.49420681      -2.49094435       2.49348790
C        3.07719890      -1.59953325       1.58750083
C        2.26997635      -0.79257999       0.78176549
C        0.88204012      -0.88204012       0.88204012
C        0.29199095      -1.77030202       1.77887049
C        1.09951722      -2.57520939       2.58494730
C        5.30372883      -7.59755288       4.79931257
H        5.91295626      -8.29414489       4.20230879
C        4.36682820      -8.41356723       5.69510173
C        4.47639039      -9.81320554       5.74076059
C        3.62701243     -10.56668054       6.55528217
C        2.66447115      -9.92696345       7.33284896
C        2.54363064      -8.54030464       7.30673192
C        3.39192363      -7.78669395       6.49301893
H        7.44612277      -4.98174071       7.17714748
H        6.55892654      -3.67883494       6.53908750
H        4.59005014      -7.91944207       2.01371521
H        3.27306742      -8.37487591       3.09085030
H        2.63788542      -7.13232011       0.93077795
H        1.90079557      -6.57830689       2.43122579
H        2.70039574      -4.68180725       1.06978400
H        4.33741195      -5.31614320       1.06446767
H        3.57304484      -2.92684748       4.30395534
H        4.15898104      -1.53078915       1.50362915
H        2.73231316      -0.10257808       0.08154484
H       -0.78920388      -1.84513033       1.85804637
H        0.63549463      -3.27116377       3.28066035
H        5.22512613     -10.33113516       5.14420884
H        3.72615803     -11.64889878       6.57734430
H        1.79546491      -8.03668651       7.91325743
H        3.28175671      -6.70362079       6.48411829
C        1.78790613     -10.70454552       8.16986741
C        1.05378292     -11.35577050       8.87087036
Br      -0.13323222     -12.40874621      10.00433285
