165
Properties=species:S:1:pos:R:3 pbc="F F F"
C        0.00000000       0.00000000       0.00000000
C        9.54922500      -3.55708310      -2.26876566
O       10.52601496      -2.94938305      -3.10798959
C       10.34635990      -1.61111357      -3.34886216
C        9.10044535      -0.98155710      -3.36534176
C        8.99649620       0.40946889      -3.50026634
C        7.69889525       1.10636709      -3.48310270
C        6.61042385       0.83758902      -2.74168764
C        6.36692274      -0.18215548      -1.69821305
O        7.16169565      -0.91453619      -1.14251213
N        5.02059947      -0.09624883      -1.42083443
N        4.43123255       1.00897941      -2.05240132
C        3.06323880       1.34550180      -1.87121256
C        2.49673977       2.47349092      -2.48109106
C        1.14850432       2.80229746      -2.29468489
C        0.33847058       2.00724460      -1.49123567
C        0.88271172       0.88271172      -0.88271172
C        2.22779443       0.54809861      -1.06885642
C        5.35915933       1.63749659      -2.89472653
O        5.24774292       2.61008698      -3.62117690
C       10.16493062       1.15391805      -3.73201547
C       11.41300325       0.52276716      -3.78911661
Br      12.95600669       1.57874579      -4.09642620
C       11.49783635      -0.85649794      -3.60608759
O       12.74397777      -1.49191337      -3.55184133
C       12.94597988      -2.36460428      -4.61410472
O       12.35744685      -2.36693624      -5.68760198
C       14.01876239      -3.34090430      -4.23013397
H        8.65923688      -3.81889181      -2.84864888
H        9.29118574      -2.92388974      -1.41277519
H        9.98097738      -4.48244005      -1.87626007
H        8.20236009      -1.58121915      -3.26509648
H        7.64514206       1.94736281      -4.17676321
H        4.66885852      -0.47640427      -0.55303737
H        3.08225353       3.13357300      -3.11558149
H        0.73618600       3.68381871      -2.78072847
H       -0.70658821       2.26975845      -1.35001741
H        2.59716930      -0.35043798      -0.58727248
H       10.10461977       2.23283630      -3.86471324
H       14.21364315      -4.01677294      -5.06721009
H       13.67989294      -3.93602602      -3.37709625
H       14.94069655      -2.80967502      -3.98409859
C       -8.95720536       4.12398607      -3.42768829
O       -9.91164995       3.52605198      -4.29902351
C       -9.83610623       2.16096349      -4.40896574
C       -8.65635706       1.43001630      -4.25788925
C       -8.66968733       0.02868415      -4.26522825
C       -7.44767145      -0.77033568      -4.07035791
C       -6.40533205      -0.52706354      -3.25730492
C       -6.15778107       0.56014235      -2.28534159
O       -6.92580171       1.40471989      -1.86858977
N       -4.85316403       0.38716838      -1.87918942
N       -4.31682916      -0.81704961      -2.35873451
C       -3.00564924      -1.24934851      -2.02495542
C       -2.49591955      -2.47223408      -2.48316813
C       -1.20407384      -2.89473616      -2.14667668
C       -0.39486290      -2.10017165      -1.34191631
C       -0.88271172      -0.88271172      -0.88271172
C       -2.17091768      -0.45468941      -1.21914237
C       -5.22444315      -1.44003300      -3.22690630
O       -5.14216919      -2.48116976      -3.85566785
C       -9.87793697      -0.63299817      -4.53992899
C      -11.05349288       0.09295142      -4.76434555
Br     -12.65566523      -0.85327642      -5.12223703
C      -11.02632163       1.48542681      -4.70653117
O      -12.20893366       2.22567664      -4.82064872
C      -12.23983908       3.01095106      -5.96659231
O      -11.56539586       2.86512999      -6.97784672
C      -13.24684894       4.10514870      -5.76629182
H       -8.00132457       4.25562554      -3.94329491
H       -8.83134533       3.55267758      -2.50140343
H       -9.33357630       5.11451195      -3.15573305
H       -7.71859577       1.95869164      -4.12633329
H       -7.41327741      -1.67304030      -4.68295037
H       -4.54221172       0.81452122      -1.01780112
H       -3.08416627      -3.13623571      -3.11100604
H       -0.83509128      -3.84872825      -2.51691366
H        0.60605900      -2.43555281      -1.08369385
H       -2.49535272       0.51216425      -0.85081533
H       -9.90607440      -1.72077882      -4.57531611
H      -13.30771173       4.71522656      -6.67159513
H      -12.92767410       4.74551990      -4.93880897
H      -14.23110701       3.67819740      -5.56221051
C        1.38005301      10.32544302      -0.68448244
O        0.64936465      11.34608433      -0.01209819
C       -0.05031661      10.93874126       1.09505061
C       -0.57003010       9.65366229       1.26053762
C       -1.17184672       9.26832130       2.46606341
C       -1.69517396       7.90883378       2.68435730
C       -1.19124056       6.73651797       2.26194198
C        0.03674335       6.41876929       1.50095437
O        0.97458018       7.14028702       1.22396475
N       -0.06119148       5.07673466       1.20725893
N       -1.14057947       4.47815443       1.87387938
C       -1.41337034       3.08743726       1.77914556
C       -2.47485281       2.49722535       2.47924359
C       -2.73560975       1.12472688       2.38515004
C       -1.93648008       0.31323957       1.58723120
C       -0.88271172       0.88271172       0.88271172
C       -0.62058043       2.25363775       0.97053127
C       -1.89263227       5.45012772       2.54862245
O       -2.90067554       5.35135200       3.22697927
C       -1.34563617      10.23328754       3.47194043
C       -0.89216034      11.54471004       3.28801663
Br      -1.14657969      12.80191828       4.68268072
C       -0.25478895      11.89406464       2.09857240
O        0.30141972      13.16844715       1.93687830
C       -0.33678476      13.90915758       0.94953799
O       -1.45897340      13.72157130       0.49756790
C        0.59036352      14.99946510       0.49889048
H        0.72132859       9.76367010      -1.35334757
H        1.89426815       9.65829634       0.01604300
H        2.14434857      10.81462167      -1.29547571
H       -0.49870828       8.94395624       0.44357291
H       -2.61647994       7.88371514       3.26907300
H        0.77165094       4.56358860       0.95355396
H       -3.12945589       3.08078558       3.12116655
H       -3.56646793       0.69434470       2.93992055
H       -2.14408396      -0.75139733       1.52050102
H        0.20142727       2.65029893       0.38513214
H       -1.83318321       9.96212384       4.40686226
H        0.09217624      15.61295437      -0.25669783
H        1.48288314      14.55455870       0.04928761
H        0.86369188      15.63453499       1.34427701
C       -2.48370941     -10.12076227       0.62385471
O       -1.78885342     -11.14395998       1.32951493
C       -0.93157732     -10.70819129       2.30749451
C       -0.26947235      -9.47960777       2.27409459
C        0.49990456      -9.04465031       3.36167656
C        1.17903296      -7.73758750       3.37174458
C        0.75175154      -6.56471813       2.87323085
C       -0.51562118      -6.18936289       2.20923860
O       -1.54668434      -6.82509692       2.11125900
N       -0.31633635      -4.90340988       1.75811155
N        0.88605482      -4.36577913       2.24077933
C        1.28547660      -3.03127729       1.96319928
C        2.47308767      -2.49652505       2.48170903
C        2.85884624      -1.17861475       2.20802569
C        2.06110046      -0.36714711       1.40870328
C        0.88271172      -0.88271172       0.88271172
C        0.49504782      -2.19954657       1.15015506
C        1.60720901      -5.34303217       2.94114127
O        2.68993068      -5.29025714       3.49881898
C        0.68738212      -9.91651512       4.44696690
C        0.08602086     -11.18044977       4.45841637
Br       0.36741577     -12.31101208       5.95275082
C       -0.71306053     -11.57421220       3.38627432
O       -1.40973498     -12.78773514       3.42590557
C       -0.96467884     -13.69139554       2.46876363
O        0.11273464     -13.67779252       1.88758544
C       -2.04194051     -14.71041919       2.23951338
H       -1.85104668      -9.70705166      -0.16701104
H       -2.84588133      -9.33272274       1.29322978
H       -3.35732584     -10.58006481       0.15205843
H       -0.36018836      -8.85252005       1.39390573
H        2.15804633      -7.75732433       3.85389742
H       -1.11633159      -4.32811763       1.53370559
H        3.13343785      -3.08218157       3.11578860
H        3.78600175      -0.79059522       2.62413621
H        2.36630955       0.65517783       1.20205593
H       -0.42339844      -2.55832018       0.69908207
H        1.30184333      -9.60889570       5.29143029
H       -1.69638673     -15.44917481       1.51129222
H       -2.92984693     -14.21565122       1.83515889
H       -2.28118402     -15.22210115       3.17420299
