157
Properties=species:S:1:pos:R:3 pbc="F F F"
C        0.00000000       0.00000000       0.00000000
C        0.88197607       0.88197607      -0.88197607
C        2.24396893       0.60720626      -0.99121993
C        3.04789924       1.41542330      -1.80283878
C        4.49009747       1.12577904      -1.93638791
N        5.06005657       0.14787835      -1.30260365
N        6.38983817       0.01449412      -1.56448426
C        7.14635782      -0.98830248      -0.99135874
O        6.81673604      -1.83673838      -0.17426409
C        8.58835531      -0.96311963      -1.51204587
O        8.91142465      -0.12806826      -2.34796081
N        9.38740422      -1.93231106      -0.93509819
N       10.69019101      -2.04026691      -1.30492183
C       11.40486501      -2.87933642      -0.62680722
C       12.83640750      -3.06722379      -0.94273219
C       13.61064795      -3.78053906      -0.02185495
C       14.97097248      -3.96207722      -0.26603835
C       15.56380008      -3.45556518      -1.42141169
C       14.78597598      -2.75188625      -2.34603769
I       15.73555601      -2.02354172      -4.06580318
C       13.42126996      -2.54618065      -2.10936431
O       12.68815862      -1.84350467      -3.03028982
C        2.48611711       2.49316531      -2.49886314
O        3.29329634       3.26969010      -3.28795036
C        1.11675809       2.75818848      -2.37885379
I        0.22730546       4.35340030      -3.39657502
C        0.31147409       1.95288340      -1.57073868
H        2.67992313      -0.23149169      -0.45215716
H        5.07045106       1.78178039      -2.61035899
H        6.85328295       0.62708845      -2.23610080
H        8.97366327      -2.54337471      -0.23156041
H       10.98477278      -3.46409390       0.21189438
H       13.16543114      -4.17866423       0.88634892
H       16.62624877      -3.60692921      -1.59701720
H       11.78719834      -1.68205717      -2.66974273
H        2.74181143       3.96562924      -3.69237996
H       -0.75343969       2.15199193      -1.47451108
C       15.77487634      -4.67568349       0.69213944
C       16.44814582      -5.27332874       1.49461334
Br      17.53676563      -6.23967057       2.79214576
C       -0.88197607      -0.88197607      -0.88197607
C       -1.66133559      -0.30057195      -1.88048757
C       -2.46533671      -1.11227475      -2.68854986
C       -3.28548607      -0.50845311      -3.75832523
N       -3.31074392       0.77101479      -3.97080945
N       -4.10252607       1.14687357      -5.01316405
C       -4.22720658       2.46897514      -5.39118264
O       -3.74274302       3.46961776      -4.88113649
C       -5.11102057       2.60995339      -6.63621437
O       -5.57639670       1.60534934      -7.16026983
N       -5.28810125       3.92417624      -7.02626634
N       -6.04024735       4.20707678      -8.12167536
C       -6.26905085       5.46113763      -8.34442261
C       -7.08323671       5.87702130      -9.50570049
C       -7.51170369       7.20777508      -9.54803524
C       -8.30205589       7.63923143     -10.61210915
C       -8.65662703       6.76628500     -11.63930455
C       -8.21847167       5.43901893     -11.60067467
I       -8.77912522       4.18028316     -13.17897540
C       -7.43718847       4.98410851     -10.53137366
O       -7.03190418       3.67457995     -10.51761954
C       -2.48619901      -2.49896022      -2.49298634
O       -3.28069328      -3.27301082      -3.29723270
C       -1.69914670      -3.06921167      -1.48544199
I       -1.69235115      -5.13322612      -1.15170351
C       -0.89478454      -2.26218929      -0.67812233
H       -1.64336463       0.77656934      -2.03379331
H       -3.88097572      -1.20036633      -4.38124841
H       -4.58802468       0.44911462      -5.57756215
H       -4.84993369       4.65666909      -6.46858438
H       -5.88693553       6.25482176      -7.67667073
H       -7.24800105       7.90081380      -8.75323074
H       -9.27307069       7.11936958     -12.46263564
H       -6.59916727       3.48009954      -9.65581616
H       -3.17286763      -4.20334985      -3.02360316
H       -0.27941611      -2.69884844       0.10520122
C       -8.76406212       9.00269139     -10.64568268
C       -9.15099233      10.14458910     -10.67380051
Br      -9.77662577      11.99094113     -10.71926466
C       -0.88197607       0.88197607       0.88197607
C       -1.79081887       0.29261073       1.75896552
C       -2.59455445       1.10392938       2.56767749
C       -3.55199046       0.49013370       3.51014025
N       -3.69938069      -0.79511356       3.60627145
N       -4.60778075      -1.18286547       4.54390127
C       -4.87192188      -2.51507764       4.79256984
O       -4.42699252      -3.50993887       4.23720810
C       -5.87054193      -2.67793351       5.94467313
O       -6.29743523      -1.68195599       6.51583796
N       -6.18712944      -3.99867890       6.20174081
N       -7.05332913      -4.30192976       7.20344656
C       -7.40164967      -5.54484160       7.29552775
C       -8.34601546      -5.97998378       8.34588421
C       -8.88287053      -7.26683164       8.23592496
C       -9.79626651      -7.71166591       9.19033301
C      -10.16816022      -6.89690035      10.25838671
C       -9.62229536      -5.61466907      10.37250113
I      -10.21613526      -4.44333852      12.00502073
C       -8.71554362      -5.14532674       9.41423674
O       -8.20594227      -3.87982191       9.54882341
C       -2.48576416       2.49831900       2.49406241
O       -3.28277314       3.27172703       3.29643663
C       -1.56939056       3.07666503       1.60774477
I       -1.36612583       5.15226358       1.45889137
C       -0.76498308       2.26990121       0.80021188
H       -1.87369451      -0.79078369       1.81767778
H       -4.14209195       1.17913285       4.14136565
H       -5.08304976      -0.49301984       5.12644229
H       -5.76225529      -4.71938042       5.61897411
H       -7.02767654      -6.31244263       6.59355058
H       -8.60711154      -7.91378697       7.40709342
H      -10.88133214      -7.25976540      10.99477001
H       -7.68460583      -3.65511318       8.74539125
H       -3.07628389       4.20802710       3.11550965
H       -0.04963909       2.71259591       0.11082832
C      -10.36829532      -9.02731919       9.06607728
C      -10.84736945     -10.12917881       8.96201311
Br     -11.62199179     -11.91079262       8.79375013
C        0.88197607      -0.88197607       0.88197607
C        1.24047407      -0.44572942       2.15619163
C        2.04572979      -1.25806876       2.96236277
C        2.42115290      -0.81172882       4.31938268
N        2.04775078       0.33485785       4.79764565
N        2.46510516       0.56896423       6.07267562
C        2.13799618       1.73114022       6.74255811
O        1.51700564       2.70662023       6.34387633
C        2.66314139       1.70884549       8.18298565
O        3.26434553       0.72173905       8.58871072
N        2.38477189       2.87146783       8.87688731
N        2.77924708       2.99539395      10.17099280
C        2.60149897       4.15862095      10.70945780
C        3.00356154       4.40231172      12.11066608
C        3.03029468       5.72952700      12.55119617
C        3.42639828       6.00948517      13.85802050
C        3.78050317       4.98387928      14.73302270
C        3.74293890       3.65685490      14.29404341
I        4.27918069       2.16177624      15.66041301
C        3.36290084       3.35827191      12.97982469
O        3.34598876       2.04802711      12.57698212
C        2.48826542      -2.50003094       2.48984921
O        3.27506313      -3.27803896       3.29783470
C        2.12140802      -2.92497218       1.20742016
I        2.75368394      -4.76989094       0.45370591
C        1.31694314      -2.11730233       0.40085070
H        0.89477125       0.51823485       2.52405220
H        3.03732850      -1.50517242       4.92008953
H        2.99220433      -0.13725426       6.58701362
H        1.89107003       3.61847162       8.38925056
H        2.16693017       5.00519188      10.14704620
H        2.76145161       6.54185575      11.88082214
H        4.08629684       5.21958443      15.74962434
H        3.17700208       2.01068013      11.60856194
H        3.48802823      -4.09801649       2.81377591
H        1.02663570      -2.44214356      -0.59571595
C        3.47744630       7.37690841      14.30651552
C        3.52019902       8.52212537      14.68213009
Br       3.58932656      10.37384435      15.28946709
