178
Properties=species:S:1:pos:R:3 pbc="F F F"
C        1.79188009       1.79188009      -1.79188009
C        3.15387296       1.51711028      -1.90112395
C        3.95780327       2.32532732      -2.71274281
C        5.40000149       2.03568306      -2.84629193
N        5.96996060       1.05778237      -2.21250768
N        7.29974220       0.92439815      -2.47438828
C        8.05626184      -0.07839845      -1.90126276
O        7.72664007      -0.92683436      -1.08416811
C        9.49825933      -0.05321561      -2.42194989
O        9.82132868       0.78183576      -3.25786483
N       10.29730825      -1.02240703      -1.84500221
N       11.60009503      -1.13036288      -2.21482586
C       12.31476903      -1.96943239      -1.53671125
C       13.74631153      -2.15731977      -1.85263621
C       14.52055198      -2.87063503      -0.93175898
C       15.88087651      -3.05217320      -1.17594238
C       16.47370410      -2.54566116      -2.33131571
C       15.69588000      -1.84198223      -3.25594171
I       16.64546003      -1.11363770      -4.97570721
C       14.33117399      -1.63627662      -3.01926833
O       13.59806264      -0.93360065      -3.94019385
C        3.39602114       3.40306934      -3.40876717
O        4.20320036       4.17959412      -4.19785439
C        2.02666211       3.66809250      -3.28875781
I        1.13720949       5.26330433      -4.30647904
C        1.22137811       2.86278742      -2.48064270
H        3.58982715       0.67841233      -1.36206118
H        5.98035509       2.69168442      -3.52026302
H        7.76318698       1.53699248      -3.14600483
H        9.88356730      -1.63347068      -1.14146444
H       11.89467680      -2.55418987      -0.69800964
H       14.07533517      -3.26876020      -0.02355510
H       17.53615279      -2.69702519      -2.50692122
H       12.69710236      -0.77215315      -3.57964676
H        3.65171546       4.87553327      -4.60228398
H        0.15646434       3.06189595      -2.38441511
C       16.68478037      -3.76577947      -0.21776459
C       17.35804985      -4.36342472       0.58470931
Br      18.44666966      -5.32976654       1.88224174
C       -1.79188009      -1.79188009      -1.79188009
C       -3.10410423      -1.40702656      -2.06097640
C       -3.90776523      -2.21597182      -2.87213634
C       -5.29577378      -1.81153303      -3.17466967
N       -5.82039374      -0.72762775      -2.69222916
N       -7.10097193      -0.50102336      -3.09653334
C       -7.80246362       0.61841239      -2.69507493
O       -7.46526158       1.51076287      -1.92947511
C       -9.18659198       0.67224233      -3.35264397
O       -9.51425906      -0.20931837      -4.13745184
N       -9.93392510       1.76261758      -2.94859591
N      -11.18050538       1.95080470      -3.45485733
C      -11.86639437       2.91469303      -2.93034655
C      -13.23746389       3.19913580      -3.40329988
C      -14.01693851       4.06804884      -2.63278625
C      -15.32457926       4.34690309      -3.02696952
C      -15.85778406       3.78345693      -4.18503152
C      -15.07345683       2.92339313      -4.95977578
I      -15.93112077       2.11615841      -6.69256717
C      -13.76320573       2.61944533      -4.57040529
O      -13.02341832       1.76479890      -5.34603642
C       -3.39556887      -3.40427710      -3.40801167
O       -4.20132904      -4.17927616      -4.20004367
C       -2.07604921      -3.77906645      -3.12839676
I       -1.26165260      -5.54193384      -3.90340641
C       -1.27101982      -2.97347900      -2.32030942
H       -3.50124781      -0.48265716      -1.64639570
H       -5.87518891      -2.47618712      -3.84092649
H       -7.56042718      -1.13303239      -3.75272471
H       -9.52676690       2.40080268      -2.26559683
H      -11.46782419       3.53972657      -2.11039895
H      -13.61840236       4.51281327      -1.72454098
H      -16.87949930       4.01224775      -4.47879728
H      -12.17949226       1.55911780      -4.88422150
H       -3.68766929      -4.95922889      -4.48263453
H       -0.24442976      -3.25772421      -2.10062142
C      -16.13679949       5.22251700      -2.22248299
C      -16.81703394       5.95584365      -1.54872553
Br     -17.91691551       7.14157082      -0.45931669
C       -1.79188009       1.79188009       1.79188009
C       -1.48906131       3.14436173       1.93868415
C       -2.30141083       3.94969334       2.74476923
C       -1.99762631       5.38709669       2.89725348
N       -0.97566667       5.94211570       2.32246828
N       -0.86507801       7.27962712       2.55382349
C        0.15230032       8.03120220       2.00022427
O        1.09286171       7.67034127       1.30649427
C        0.00119994       9.51589751       2.35229605
O       -0.95404182       9.87972263       3.02726482
N        1.02152190      10.29760839       1.84381693
N        1.01846737      11.63803808       2.06498730
C        2.07164555      12.28010922       1.67358422
C        2.17321453      13.74092172       1.87392078
C        3.42457894      14.33271319       1.67354168
C        3.57362549      15.70405541       1.87421576
C        2.48969123      16.49268314       2.25636675
C        1.23704801      15.90100928       2.44587822
I       -0.35272619      17.14269452       3.01210883
C        1.07251656      14.52234137       2.26434088
O       -0.16597851      13.97092281       2.46775452
C       -3.40996025       3.39835780       3.39953959
O       -4.19090540       4.20703594       4.18270753
C       -3.70153898       2.03800359       3.24396985
I       -5.34435465       1.16469312       4.19794509
C       -2.89364116       1.23184042       2.43932666
H       -0.62905312       3.57308976       1.42815779
H       -2.68781759       5.97904387       3.52544106
H       -1.56680918       7.77329763       3.10607747
H        1.76376308       9.83938599       1.31593813
H        2.92866619      11.76769431       1.19946844
H        4.28146536      13.73193341       1.37966202
H        2.62300481      17.56125263       2.40780101
H       -0.09446464      12.99096684       2.41916449
H       -4.90928823       3.66316154       4.55708293
H       -3.11554013       0.17465473       2.31258053
C        4.86634927      16.31158428       1.69153047
C        5.94900543      16.82038971       1.53853154
Br       7.69956888      17.64308505       1.29114521
C        1.79188009      -1.79188009       1.79188009
C        1.37013951      -3.07810771       2.12385997
C        2.18249145      -3.88416961       2.92921234
C        1.75169392      -5.25360158       3.27668098
N        0.61860683      -5.74356017       2.87808365
N        0.39806470      -7.02841079       3.27205313
C       -0.74832502      -7.71090640       2.91654476
O       -1.72024451      -7.31762731       2.28659103
C       -0.71160128      -9.15885337       3.41974153
O        0.27235649      -9.55868581       4.02998697
N       -1.85881196      -9.86613116       3.11258423
N       -1.96855000     -11.16799920       3.48510881
C       -3.12034375     -11.72145998       3.28093166
C       -3.34826015     -13.13236702       3.65752110
C       -4.66868097     -13.59363704       3.65671985
C       -4.93423975     -14.91064790       4.02823753
C       -3.90065263     -15.77518922       4.38482207
C       -2.58023171     -15.31530326       4.37476793
I       -1.07240698     -16.66671498       4.91322154
C       -2.29641545     -13.99086425       4.01971689
O       -0.99252305     -13.56768742       4.02949147
C        3.40995689      -3.39957176       3.39832899
O        4.18829824      -4.20768745       4.18466318
C        3.82039506      -2.10517596       3.05794141
I        5.64335573      -1.33313069       3.73050644
C        3.01269308      -1.29865634       2.25345882
H        0.41747868      -3.45531263       1.75750936
H        2.44487711      -5.85312287       3.89430255
H        1.10404059      -7.53999492       3.80214877
H       -2.60565997      -9.38239169       2.61482933
H       -3.96881401     -11.16542055       2.84189003
H       -5.48715578     -12.93172478       3.38556106
H       -4.12511588     -16.79995437       4.67121034
H       -0.96772273     -12.59628382       3.87603488
H        4.99723358      -3.71445348       4.41784565
H        3.32634579      -0.29279151       1.98363809
C       -6.29510859     -15.38087989       4.05099418
C       -7.43483625     -15.77469918       4.07005288
Br      -9.27767947     -16.41147167       4.10086918
C       -0.00445707       0.01189536      -1.78238275
H       -0.66409135       0.67374010      -2.43557963
H        0.65740317      -0.63156657      -2.45157240
C       -0.90989263      -0.90692880      -0.91072765
C        0.90977584       0.90977584      -0.90977584
C       -0.00465871       1.77757030       0.00794375
H       -0.66225468       2.44313916      -0.64384735
H        0.64322798       2.43503045       0.67728295
C       -1.78241447       0.00034974      -0.00472694
H       -2.45427497      -0.65498947       0.64260836
H       -2.43311707       0.67328779      -0.65473579
C       -0.91132561       0.90220522       0.91563759
C       -0.01476271      -0.02253852       1.78660255
H       -0.67934791      -0.69751639       2.42135241
H        0.63392994       0.61504881       2.47327442
C        0.01484550      -1.77751727      -0.01636693
H        0.67870853      -2.42144646      -0.68295456
H       -0.62264859      -2.45592969       0.64226336
C        1.78714474       0.01002794       0.00389507
H        2.44202412       0.67113390       0.66197326
H        2.45385902      -0.65136977      -0.64189061
C        0.91606151      -0.90478549       0.90901405
