125
Properties=species:S:1:pos:R:3 pbc="F F F"
C        0.00000000       0.00000000       0.00000000
C        4.30837348       4.00521219      -2.74430404
O        3.24069760       3.28029030      -3.34510168
C        2.50068527       2.49944987      -2.49234128
C        3.01943896       1.91067879      -1.33330116
C        2.20976069       1.10525604      -0.52720848
C        0.88201233       0.88201233      -0.88201233
C        0.35506037       1.44792510      -2.04027629
C        1.16325519       2.25348520      -2.85479879
C        0.57586810       2.82412060      -4.07240157
C       -0.03267309       4.01708192      -4.14181723
C       -0.23098840       5.00995883      -3.02330417
O        0.11206180       4.92800417      -1.86071014
N       -0.91536598       6.06757607      -3.60741721
C       -1.16217647       5.83422446      -4.95629974
C       -1.82700545       6.66705481      -5.83321560
C       -1.97142397       6.22565377      -7.15148389
C       -1.45056339       4.97971961      -7.54818375
Br      -1.67086599       4.41420709      -9.34091460
C       -0.77790302       4.14943408      -6.64661744
C       -0.64185566       4.59466227      -5.34369662
H        4.63156317       4.77274696      -3.45407193
H        5.16293006       3.34823565      -2.55408856
H        3.98965203       4.51233191      -1.82682709
H        4.05465834       2.05150407      -1.04067254
H        2.62564967       0.65718209       0.37133117
H       -0.68272293       1.26983975      -2.30968128
H        0.67504455       2.19326265      -4.94965155
H       -1.18993351       6.88555747      -3.08595034
H       -2.22722503       7.62441557      -5.51961612
H       -2.49299329       6.85439224      -7.86986257
H       -0.38025822       3.18990646      -6.95761027
C       -3.34490469      -3.08139411      -4.63159091
O       -3.32129984      -3.31690127      -3.22788847
C       -2.49586676      -2.49402714      -2.50258252
C       -1.32273671      -1.92692857      -3.01375363
C       -0.51826353      -1.11901479      -2.20494690
C       -0.88201233      -0.88201233      -0.88201233
C       -2.03796833      -1.45147511      -0.35381833
C       -2.84681161      -2.26577072      -1.15895684
C       -4.05140975      -2.85640932      -0.56457121
C       -5.26595685      -2.28797872      -0.57229049
C       -5.65334363      -0.96454531      -1.18438566
O       -4.95684768      -0.16565863      -1.77826979
N       -7.00941973      -0.83476218      -0.91544539
C       -7.49660126      -1.92684197      -0.20490449
C       -8.79035860      -2.11850471       0.23559834
C       -9.05844406      -3.29244970       0.94518006
C       -8.03623067      -4.22902684       1.18791754
Br      -8.43709020      -5.80443089       2.15726539
C       -6.73114528      -4.01941700       0.73241378
C       -6.47569594      -2.85346964       0.03266235
H       -4.21710784      -3.59907795      -5.04219626
H       -2.45427110      -3.50177058      -5.10921259
H       -3.45000113      -2.01563545      -4.86317445
H       -1.00391742      -2.10803921      -4.03487831
H        0.38819942      -0.68312811      -2.61657190
H       -2.31566873      -1.26063011       0.67950074
H       -3.88860483      -3.82531906      -0.10403487
H       -7.54246804      -0.03073371      -1.20837254
H       -9.57183764      -1.39146280       0.04649378
H      -10.06646858      -3.47566740       1.31087446
H       -5.94742030      -4.74373720       0.92389899
C       -4.25155379       4.07256972       2.73376620
O       -3.24366397       3.27575715       3.34666846
C       -2.50036584       2.49980848       2.49230210
C       -2.99157020       1.98478522       1.28706348
C       -2.18187017       1.17920126       0.48115378
C       -0.88201233       0.88201233       0.88201233
C       -0.38356668       1.37388836       2.08580673
C       -1.19215623       2.17918331       2.90019963
C       -0.63583586       2.67054382       4.16601059
C        0.01938236       3.83112194       4.31448648
C        0.30960078       4.86101455       3.25086084
O        0.01556209       4.84415539       2.07218281
N        1.01177465       5.86114886       3.91025308
C        1.18798587       5.55964229       5.25669130
C        1.84799089       6.32378914       6.19746671
C        1.91448818       5.82050427       7.49969761
C        1.32373105       4.58324235       7.81782867
Br       1.43950579       3.93244056       9.59132093
C        0.65711774       3.82303724       6.85222900
C        0.59845448       4.32911330       5.56584440
H       -4.57301468       4.82275143       3.46261594
H       -5.12404562       3.46308453       2.47812412
H       -3.87086570       4.60367801       1.85426732
H       -4.00574937       2.18401048       0.95707510
H       -2.57601821       0.78889628      -0.45341390
H        0.63261654       1.13835131       2.39106332
H       -0.80088667       2.00785838       5.00921370
H        1.34400200       6.68758719       3.43798910
H        2.30230977       7.27486129       5.94425514
H        2.42986439       6.39410743       8.26701848
H        0.20539247       2.86979882       7.10285217
C        3.55728399      -2.92835428       4.57225144
O        3.30876411      -3.32842237       3.22890311
C        2.49703213      -2.49323646       2.50220783
C        1.48540257      -1.70920812       3.06880821
C        0.68074436      -0.90188531       2.25959554
C        0.88201233      -0.88201233       0.88201233
C        1.87409526      -1.66804536       0.30112114
C        2.68175200      -2.48269971       1.10708747
C        3.70976903      -3.30445682       0.45816442
C        4.97384075      -2.91499925       0.23738606
C        5.60228134      -1.59389432       0.60609894
O        5.09894206      -0.63870326       1.16313079
N        6.91294736      -1.68913318       0.15754676
C        7.15837646      -2.91739517      -0.44742390
C        8.34441599      -3.34076615      -1.01191718
C        8.36467738      -4.61868055      -1.57764424
C        7.21158391      -5.42557341      -1.55981735
Br       7.27675817      -7.14834976      -2.34085223
C        6.01871248      -4.98114514      -0.98170913
C        6.00851091      -3.71406180      -0.42606949
H        4.40831218      -3.50877832       4.94129155
H        2.69754379      -3.15821756       5.20949292
H        3.82353235      -1.86753378       4.63774489
H        1.29288378      -1.71742982       4.13652135
H       -0.09888097      -0.29629969       2.71408187
H        2.02569859      -1.64599786      -0.77489836
H        3.36663873      -4.29009158       0.16122845
H        7.57619880      -0.93785906       0.26751644
H        9.22779843      -2.71262722      -1.02361900
H        9.28147640      -4.98459518      -2.03481006
H        5.13312354      -5.60658717      -0.97245220
