146
Properties=species:S:1:pos:R:3 pbc="F F F"
C        5.21827751       4.91511621      -3.65420806
O        4.15060162       4.19019433      -4.25500571
C        3.41058929       3.40935390      -3.40224531
C        3.92934299       2.82058281      -2.24320518
C        3.11966472       2.01516006      -1.43711251
C        1.79191636       1.79191636      -1.79191636
C        1.26496440       2.35782913      -2.95018032
C        2.07315921       3.16338922      -3.76470281
C        1.48577213       3.73402463      -4.98230559
C        0.87723094       4.92698594      -5.05172125
C        0.67891562       5.91986286      -3.93320819
O        1.02196582       5.83790820      -2.77061416
N       -0.00546195       6.97748009      -4.51732123
C       -0.25227245       6.74412848      -5.86620376
C       -0.91710143       7.57695883      -6.74311963
C       -1.06151994       7.13555779      -8.06138792
C       -0.54065937       5.88962364      -8.45808777
Br      -0.76096196       5.32411111     -10.25081862
C        0.13200100       5.05933810      -7.55652146
C        0.26804836       5.50456629      -6.25360065
H        5.54146719       5.68265099      -4.36397595
H        6.07283408       4.25813967      -3.46399259
H        4.89955605       5.42223593      -2.73673112
H        4.96456236       2.96140809      -1.95057656
H        3.53555369       1.56708612      -0.53857285
H        0.22718109       2.17974377      -3.21958530
H        1.58494858       3.10316668      -5.85955557
H       -0.28002949       7.79546149      -3.99585436
H       -1.31732101       8.53431959      -6.42952014
H       -1.58308926       7.76429626      -8.77976659
H        0.52964580       4.09981049      -7.86751430
C       -4.20252283      -4.03624697      -5.54883198
O       -4.23418339      -4.22356949      -4.13804878
C       -3.40548177      -3.40416631      -3.41254041
C       -2.19690258      -2.89479918      -3.90142922
C       -1.39245534      -2.08673905      -3.09274291
C       -1.79191636      -1.79191636      -1.79191636
C       -2.98399431      -2.30363018      -1.28534934
C       -3.79315099      -3.11779091      -2.09030935
C       -5.03676857      -3.64672836      -1.51860542
C       -6.22992039      -3.03850320      -1.58751454
C       -6.55041520      -1.72485871      -2.25671276
O       -5.80709961      -0.97086138      -2.85252719
N       -7.90942673      -1.54042580      -2.03948685
C       -8.45775567      -2.59024576      -1.31005837
C       -9.77142625      -2.72302149      -0.90852929
C      -10.10372249      -3.86199099      -0.16971229
C       -9.12333360      -4.82333083       0.13961239
Br      -9.61088809      -6.34982717       1.14674749
C       -7.79722248      -4.67352920      -0.27710889
C       -7.47815475      -3.54178325      -1.00627730
H       -5.07790348      -4.53832846      -5.97186219
H       -3.31149672      -4.50256848      -5.98090114
H       -4.26275496      -2.97624052      -5.81952762
H       -1.85049943      -3.12181726      -4.90423033
H       -0.45812293      -1.69603570      -3.48705403
H       -3.28939762      -2.06784473      -0.26926782
H       -4.92321189      -4.60399011      -1.02046882
H       -8.40413619      -0.72962356      -2.37752661
H      -10.52042940      -1.97718397      -1.14890535
H      -11.12919168      -3.99850780       0.16672588
H       -7.04596141      -5.41664089      -0.03436829
C       -5.49870765       4.42135437       3.86753976
O       -4.13832745       4.22142842       4.23604579
C       -3.41221249       3.40668574       3.40329027
C       -3.97129961       2.35798196       2.66384941
C       -3.16216400       1.55337378       1.85639951
C       -1.79191636       1.79191636       1.79191636
C       -1.21793990       2.82153984       2.53349410
C       -2.02371454       3.62944168       3.34809502
C       -1.38179342       4.69786085       4.12244807
C       -1.20778451       5.95598551       3.69216812
C       -1.63047222       6.53629192       2.36522253
O       -2.19913662       5.99088942       1.44046214
N       -1.21682077       7.86100492       2.41151368
C       -0.58540788       8.15776691       3.61488501
C       -0.04332076       9.37045613       3.98920015
C        0.55663552       9.44255267       5.24950861
C        0.59378484       8.31275743       6.08807945
Br       1.41987640       8.44828847       7.78555570
C        0.03770642       7.09226886       5.69329813
C       -0.55215693       7.03080970       4.44324867
H       -5.87558881       5.27800099       4.43450432
H       -6.10472412       3.55123116       4.13901106
H       -5.60096088       4.65549824       2.80206398
H       -5.03248931       2.13639793       2.70765977
H       -3.61088379       0.74464630       1.28568257
H       -0.14767113       3.00207738       2.47676166
H       -1.04817190       4.39114618       5.10835275
H       -1.36623844       8.49939442       1.64565351
H       -0.07400983      10.23565284       3.33685606
H        0.99753135      10.38162221       5.57688274
H        0.07082667       6.22485831       6.34293894
C        4.33528861      -3.92797597       5.52433721
O        4.22653168      -4.23146384       4.13780614
C        3.40621393      -3.40360187       3.41237269
C        2.29112466      -2.75112957       3.95087674
C        1.48659574      -1.94344036       3.14190118
C        1.79191636      -1.79191636       1.79191636
C        2.88886750      -2.44669431       1.23741203
C        3.69724556      -3.26115999       2.04284570
C        4.83819256      -3.94289828       1.42101151
C        6.07825031      -3.43916170       1.33852612
C        6.56251305      -2.10901748       1.86045614
O        5.93867498      -1.24620409       2.44560911
N        7.90742239      -2.06395655       1.51796043
C        8.30179872      -3.21404114       0.84221993
C        9.55957770      -3.49485851       0.34854082
C        9.73140774      -4.71507494      -0.31105691
C        8.65256125      -5.60775889      -0.45326810
Br       8.92324540      -7.24826086      -1.35753849
C        7.38516208      -5.30770189       0.05499660
C        7.22502258      -4.09661287       0.70457985
H        5.20095927      -4.46954935       5.91758551
H        3.45107624      -4.27686029       6.06702981
H        4.50525586      -2.85898264       5.69428460
H        2.01759402      -2.86427474       4.99467825
H        0.62573736      -1.44075217       3.57472313
H        3.12123240      -2.32229388       0.18298388
H        4.60349766      -4.92366401       1.02050916
H        8.49441519      -1.27536563       1.74150554
H       10.38508634      -2.80122588       0.46020651
H       10.70853721      -4.96878681      -0.71635043
H        6.55742413      -5.99862075      -0.05907429
C       -0.00445707       0.01189536      -1.78238275
H       -0.66409135       0.67374010      -2.43557963
H        0.65740317      -0.63156657      -2.45157240
C       -0.90989263      -0.90692880      -0.91072765
C        0.90977584       0.90977584      -0.90977584
C       -0.00465871       1.77757030       0.00794375
H       -0.66225468       2.44313916      -0.64384735
H        0.64322798       2.43503045       0.67728295
C       -1.78241447       0.00034974      -0.00472694
H       -2.45427497      -0.65498947       0.64260836
H       -2.43311707       0.67328779      -0.65473579
C       -0.91132561       0.90220522       0.91563759
C       -0.01476271      -0.02253852       1.78660255
H       -0.67934791      -0.69751639       2.42135241
H        0.63392994       0.61504881       2.47327442
C        0.01484550      -1.77751727      -0.01636693
H        0.67870853      -2.42144646      -0.68295456
H       -0.62264859      -2.45592969       0.64226336
C        1.78714474       0.01002794       0.00389507
H        2.44202412       0.67113390       0.66197326
H        2.45385902      -0.65136977      -0.64189061
C        0.91606151      -0.90478549       0.90901405
