133
Properties=species:S:1:pos:R:3 pbc="F F F"
C        0.00000000       0.00000000       0.00000000
C        4.30837348       4.00521219      -2.74430404
O        3.24069760       3.28029030      -3.34510168
C        2.50068527       2.49944987      -2.49234128
C        3.01943896       1.91067879      -1.33330116
C        2.20976069       1.10525604      -0.52720848
C        0.88201233       0.88201233      -0.88201233
C        0.35506037       1.44792510      -2.04027629
C        1.16325519       2.25348520      -2.85479879
C        0.57586810       2.82412060      -4.07240157
C       -0.03267309       4.01708192      -4.14181723
C       -0.23098840       5.00995883      -3.02330417
O        0.11206180       4.92800417      -1.86071014
N       -0.91536598       6.06757607      -3.60741721
C       -1.16217647       5.83422446      -4.95629974
C       -1.82700545       6.66705481      -5.83321560
C       -1.97142397       6.22565377      -7.15148389
C       -1.45056339       4.97971961      -7.54818375
C       -0.77790302       4.14943408      -6.64661744
C       -0.64185566       4.59466227      -5.34369662
H        4.63156317       4.77274696      -3.45407193
H        5.16293006       3.34823565      -2.55408856
H        3.98965203       4.51233191      -1.82682709
H        4.05465834       2.05150407      -1.04067254
H        2.62564967       0.65718209       0.37133117
H       -0.68272293       1.26983975      -2.30968128
H        0.67504455       2.19326265      -4.94965155
H       -1.18993351       6.88555747      -3.08595034
H       -2.22722503       7.62441557      -5.51961612
H       -2.49299329       6.85439224      -7.86986257
H       -0.38025822       3.18990646      -6.95761027
C       -1.61817569       4.54946206      -8.91214290
C       -1.75855099       4.18912137     -10.05445868
Br      -1.98552599       3.60648094     -11.90148670
C       -3.12182257      -3.29771483      -4.63835231
O       -3.33365226      -3.30174736      -3.23068996
C       -2.49462657      -2.49516708      -2.50268277
C       -1.18479909      -2.18898253      -2.88963729
C       -0.38037034      -1.38044146      -2.08141341
C       -0.88201233      -0.88201233      -0.88201233
C       -2.17783579      -1.19012854      -0.47529744
C       -2.98808800      -2.00369146      -1.27975971
C       -4.34413595      -2.31487049      -0.81338383
C       -5.43633850      -1.59105433      -1.09883323
C       -5.51285463      -0.34435908      -1.94506089
O       -4.61907535       0.24137408      -2.52307484
N       -6.85363060       0.01606538      -1.92206208
C       -7.60720449      -0.86623497      -1.15490827
C       -8.96362808      -0.80043276      -0.90920413
C       -9.51646999      -1.79349675      -0.09574695
C       -8.70511497      -2.81154583       0.43932084
C       -7.33259809      -2.86385614       0.17830574
C       -6.79477837      -1.87522889      -0.62649597
H       -4.00071251      -3.74830251      -5.10936704
H       -2.25385904      -3.91088774      -4.90050748
H       -3.01798458      -2.28001562      -5.03081083
H       -0.76013794      -2.57724643      -3.80945057
H        0.63367053      -1.14882524      -2.39634588
H       -2.56245673      -0.79612005       0.46177869
H       -4.40783449      -3.20866747      -0.20145680
H       -7.20189418       0.82802249      -2.40770261
H       -9.58161046      -0.01194091      -1.32325528
H      -10.58200038      -1.77164751       0.12238637
H       -6.71231091      -3.64961541       0.59466781
C       -9.30192904      -3.81897430       1.27747407
C       -9.80176083      -4.66269564       1.97942741
Br     -10.60994655      -6.02692169       3.11442659
C       -4.40346378       2.77774690       3.87667904
O       -3.25208364       3.34910611       3.26489983
C       -2.50154244       2.49264275       2.49829123
C       -2.40556641       1.11740473       2.74044777
C       -1.59893218       0.31238263       1.93091041
C       -0.88201233       0.88201233       0.88201233
C       -0.95458984       2.25112832       0.63754361
C       -1.75886246       3.06427139       1.44840533
C       -1.80214888       4.50367943       1.16656197
C       -2.68247170       5.09672238       0.34703198
C       -3.79483682       4.43917018      -0.43173240
O       -4.10742144       3.26586154      -0.47250687
N       -4.40403563       5.47822867      -1.12263701
C       -3.78918155       6.69767180      -0.85850562
C       -4.12894040       7.92789703      -1.38357248
C       -3.36376838       9.02784889      -0.98590358
C       -2.29555153       8.86567681      -0.08388838
C       -1.96652357       7.61182088       0.43980404
C       -2.72884615       6.52915846       0.03849862
H       -5.04159580       3.59827870       4.21850756
H       -4.12225571       2.18808771       4.75491085
H       -4.98407718       2.17656229       3.16817155
H       -2.93790027       0.64791336       3.56102131
H       -1.53661675      -0.75433953       2.12922337
H       -0.39282945       2.68794858      -0.18397994
H       -1.04702018       5.08047383       1.69046474
H       -5.18927721       5.32949226      -1.73719518
H       -4.95183939       8.04446327      -2.07949600
H       -3.60049678      10.01291773      -1.38215299
H       -1.14143114       7.49278210       1.13304528
C       -1.52222390      10.01660839       0.30459697
C       -0.87456201      10.98051359       0.62995345
Br       0.17265250      12.53906678       1.15602737
C        3.59074082      -2.90821528       4.55893361
O        3.30673108      -3.33001927       3.22933923
C        2.49721457      -2.49313401       2.50212784
C        1.51338014      -1.67729327       3.07274550
C        0.70868207      -0.87006309       2.26348005
C        0.88201233      -0.88201233       0.88201233
C        1.84597480      -1.69974324       0.29754372
C        2.65345623      -2.51442868       1.10365426
C        3.65122469      -3.36997322       0.45119236
C        4.91807414      -3.01103935       0.19711257
C        5.58036881      -1.69595824       0.52594755
O        5.10785876      -0.71964266       1.07327470
N        6.87938052      -1.82705426       0.05319251
C        7.08761547      -3.07200192      -0.53126966
C        8.25307949      -3.53086880      -1.11068333
C        8.23604658      -4.82004152      -1.65037440
C        7.06757767      -5.60259351      -1.59283121
C        5.89598701      -5.12226428      -1.00010279
C        5.92265103      -3.84432722      -0.47047501
H        4.43732196      -3.49843769       4.92262241
H        2.73980523      -3.10754359       5.21790545
H        3.87954255      -1.85197670       4.59729178
H        1.34267420      -1.66010462       4.14405612
H       -0.04912951      -0.23960309       2.72102701
H        1.97588964      -1.70243955      -0.78153110
H        3.28233691      -4.35413164       0.18149020
H        7.55971268      -1.08748306       0.13437855
H        9.14848170      -2.92134217      -1.15301722
H        9.13573712      -5.21379663      -2.11827223
H        4.99838327      -5.72909899      -0.96022375
C        7.07861336      -6.92574847      -2.16093257
C        7.08785575      -8.03389076      -2.63671746
Br       7.10279992      -9.82566311      -3.40602138
