138
Properties=species:S:1:pos:R:3 pbc="F F F"
C        1.79307532       1.79307532      -1.79307532
C        2.87871645       1.21445116      -2.47493259
C        3.69480603       1.99608139      -3.29481281
C        3.39194878       3.33976226      -3.39376084
N        4.06450858       4.28285074      -4.16539945
C        3.49027490       5.53666706      -4.04335322
O        3.83423561       6.56320883      -4.59570249
C        2.34965414       5.35005599      -3.07483803
C        1.60852212       6.40770934      -2.71397531
C        0.50066420       6.40730286      -1.75741883
C        0.73804352       6.23043244      -0.38941988
C       -0.33075423       6.24817186       0.49735533
O       -0.09095295       6.05800399       1.82806814
C       -1.63143557       6.45543674       0.04743299
O       -2.62707524       6.46326704       0.98988398
C       -1.87100867       6.64648017      -1.31126314
Br      -3.62780755       6.94041881      -1.95297500
C       -0.80706724       6.62306444      -2.21655158
C        2.32095874       3.93045078      -2.70780723
C        1.50116214       3.15663643      -1.90671302
H        3.08723175       0.15187588      -2.37103089
H        4.52911691       1.55763188      -3.82987724
H        4.86240782       4.10555502      -4.75625225
H        1.82536495       7.38356862      -3.14837631
H        1.74495032       6.07675035      -0.00993378
H       -0.97008042       6.11397534       2.25364987
H       -3.46436434       6.63319222       0.51745255
H       -0.99035517       6.77396251      -3.27826833
H        0.65432643       3.58214416      -1.38091702
C       -1.79307532      -1.79307532      -1.79307532
C       -3.05807932      -1.32187136      -2.18814952
C       -3.88005868      -2.10388827      -3.00175329
C       -3.40016495      -3.34094195      -3.38436498
N       -4.04955795      -4.26151182      -4.20168900
C       -3.27986174      -5.39602594      -4.39440751
O       -3.55791967      -6.37204110      -5.06318616
C       -2.02579519      -5.15681408      -3.59193890
C       -1.08074719      -6.10685592      -3.54260366
C        0.16748559      -6.05272037      -2.78015111
C        0.15494879      -6.13015546      -1.38268918
C        1.35545732      -6.09010275      -0.68541686
O        1.33187811      -6.14940609       0.67854508
C        2.57067903      -5.99063504      -1.35661217
O        3.70853912      -5.96246945      -0.59237749
C        2.58915766      -5.92799207      -2.74790023
Br       4.22655315      -5.80210127      -3.69003814
C        1.38919653      -5.95885737      -3.46288794
C       -2.14684598      -3.82711732      -2.98525345
C       -1.32344508      -3.04919390      -2.19187261
H       -3.40286306      -0.34194745      -1.86532800
H       -4.85324904      -1.74614499      -3.31723199
H       -4.95784953      -4.14269082      -4.62367474
H       -1.22177071      -7.02867277      -4.10686640
H       -0.77919243      -6.21845383      -0.83398820
H        2.27119232      -6.11074388       0.94930652
H        4.46359948      -5.90628101      -1.20869379
H        1.40006911      -5.91217607      -4.54976870
H       -0.34169559      -3.39071142      -1.88498059
C       -1.79307532       1.79307532       1.79307532
C       -1.96020904       3.14906137       1.45882979
C       -2.76836281       3.97476600       2.24257143
C       -3.37634743       3.40521128       3.34391317
N       -4.22871324       4.04488318       4.23916235
C       -4.67128353       3.17656446       5.22244720
O       -5.43097806       3.42379029       6.13837858
C       -4.00304551       1.86134896       4.91015370
C       -4.20345008       0.80945542       5.71730126
C       -3.59973202      -0.51710916       5.58276302
C       -2.23599087      -0.70998270       5.83188767
C       -1.69243697      -1.98225507       5.70988041
O       -0.35771794      -2.15736539       5.93863035
C       -2.48692671      -3.07006135       5.35970281
O       -1.87156612      -4.29161414       5.26635584
C       -3.84740161      -2.88570349       5.12503652
Br      -4.95614613      -4.34712684       4.65656697
C       -4.40714192      -1.61036198       5.23576884
C       -3.20591127       2.05830570       3.69499978
C       -2.41837463       1.23353463       2.91260233
H       -1.46353885       3.56272309       0.58387658
H       -2.90894811       5.01898296       1.98869496
H       -4.51535815       5.01096567       4.19789126
H       -4.86966095       0.91404751       6.57360141
H       -1.59474335       0.12017660       6.11671451
H       -0.20140400      -3.11344845       5.80228950
H       -2.56179449      -4.94028797       5.02986880
H       -5.46983048      -1.46311647       5.05516166
H       -2.28500285       0.18409934       3.14828542
C        1.79307532      -1.79307532       1.79307532
C        1.97536398      -3.14445876       1.44827746
C        2.78389304      -3.96994252       2.23186468
C        3.37689590      -3.40491738       3.34365859
N        4.22696752      -4.04499184       4.24079941
C        4.65293529      -3.18163913       5.23572077
O        5.40663071      -3.43031057       6.15620565
C        3.97570956      -1.86967538       4.92916323
C        4.15945004      -0.82333675       5.74741997
C        3.54505330       0.49895202       5.61928460
C        2.17746782       0.67741977       5.85784780
C        1.62360685       1.94584408       5.74229954
O        0.28538237       2.10699177       5.96059230
C        2.41137364       3.04379008       5.40898461
O        1.78591235       4.26060143       5.32099690
C        3.77548778       2.87367825       5.18492511
Br       4.87517934       4.34907480       4.73948172
C        4.34566190       1.60243063       5.28931750
C        3.19123664      -2.06279452       3.70518559
C        2.40331948      -1.23807262       2.92311948
H        1.49024808      -3.55464681       0.56524363
H        2.93611654      -5.01054090       1.96996859
H        4.52264222      -5.00807196       4.19350091
H        4.81891832      -0.92968272       6.60870883
H        1.54119698      -0.16094703       6.12949044
H        0.12170060       3.06283121       5.83137567
H        2.47236095       4.91749913       5.09651351
H        5.41119824       1.46628896       5.11696638
H        2.25842411      -0.19202850       3.16693499
C       -0.00445707       0.01189536      -1.78238275
H       -0.66409135       0.67374010      -2.43557963
H        0.65740317      -0.63156657      -2.45157240
C       -0.90989263      -0.90692880      -0.91072765
C        0.90977584       0.90977584      -0.90977584
C       -0.00465871       1.77757030       0.00794375
H       -0.66225468       2.44313916      -0.64384735
H        0.64322798       2.43503045       0.67728295
C       -1.78241447       0.00034974      -0.00472694
H       -2.45427497      -0.65498947       0.64260836
H       -2.43311707       0.67328779      -0.65473579
C       -0.91132561       0.90220522       0.91563759
C       -0.01476271      -0.02253852       1.78660255
H       -0.67934791      -0.69751639       2.42135241
H        0.63392994       0.61504881       2.47327442
C        0.01484550      -1.77751727      -0.01636693
H        0.67870853      -2.42144646      -0.68295456
H       -0.62264859      -2.45592969       0.64226336
C        1.78714474       0.01002794       0.00389507
H        2.44202412       0.67113390       0.66197326
H        2.45385902      -0.65136977      -0.64189061
C        0.91606151      -0.90478549       0.90901405
