117
Properties=species:S:1:pos:R:3 pbc="F F F"
C        0.00000000       0.00000000       0.00000000
C        0.88317130       0.88317130      -0.88317130
C        1.96881243       0.30454713      -1.56502856
C        2.78490201       1.08617737      -2.38490879
C        2.48204475       2.42985824      -2.48385681
N        3.15460456       3.37294671      -3.25549543
C        2.58037088       4.62676304      -3.13344920
O        2.92433158       5.65330481      -3.68579847
C        1.43975012       4.44015197      -2.16493401
C        0.69861810       5.49780532      -1.80407128
C       -0.40923982       5.49739883      -0.84751481
C       -0.17186050       5.32052842       0.52048414
C       -1.24065826       5.33826784       1.40725936
O       -1.00085698       5.14809997       2.73797217
C       -2.54133960       5.54553271       0.95733702
O       -3.53697926       5.55336302       1.89978801
C       -2.78091270       5.73657614      -0.40135912
Br      -4.53771157       6.03051478      -1.04307098
C       -1.71697126       5.71316041      -1.30664756
C        1.41105472       3.02054675      -1.79790321
C        0.59125811       2.24673241      -0.99680900
H        2.17732773      -0.75802815      -1.46112687
H        3.61921288       0.64772786      -2.91997322
H        3.95250379       3.19565100      -3.84634823
H        0.91546092       6.47366460      -2.23847228
H        0.83504630       5.16684633       0.89997024
H       -1.87998444       5.20407132       3.16355390
H       -4.37426836       5.72328819       1.42735658
H       -1.90025920       5.86405848      -2.36836431
H       -0.25557760       2.67224013      -0.47101300
C       -0.88317130      -0.88317130      -0.88317130
C       -2.21820772      -1.11451423      -0.50566618
C       -3.04839578      -1.90892658      -1.29866581
C       -2.50050733      -2.45050552      -2.44474696
N       -3.15711804      -3.25095500      -3.37497366
C       -2.31531758      -3.61224858      -4.41301696
O       -2.58844775      -4.29254802      -5.38243909
C       -0.98809147      -2.98082228      -4.07592234
C        0.06388202      -3.18147190      -4.88290481
C        1.42400951      -2.68062194      -4.67906138
C        2.23107315      -3.19933273      -3.65992419
C        3.52268644      -2.71505747      -3.49797920
O        4.29653292      -3.21542512      -2.49037863
C        4.03114700      -1.73389097      -4.34411213
O        5.31706583      -1.31580803      -4.11785355
C        3.23687673      -1.22502476      -5.36887454
Br       3.90322547       0.10308170      -6.54218136
C        1.93266718      -1.69628644      -5.53921745
C       -1.16718628      -2.23843368      -2.82388472
C       -0.34604773      -1.43976359      -2.04898819
H       -2.61424022      -0.67187644       0.40569021
H       -4.08045615      -2.08677101      -1.01968678
H       -4.12288497      -3.53856711      -3.33305094
H       -0.06378275      -3.77696654      -5.78684851
H        1.86260604      -3.97314118      -2.99138724
H        5.14911784      -2.74189621      -2.56775460
H        5.52194663      -0.64584017      -4.79776971
H        1.31021073      -1.30248496      -6.33988936
H        0.68237622      -1.24199346      -2.32805829
C       -0.88317130       0.88317130       0.88317130
C       -1.88076914       1.67338027       0.28423871
C       -2.70668335       2.48116968       1.06813514
C       -2.49315771       2.47018050       2.43242160
N       -3.21208630       3.18475471       3.38620568
C       -2.74286749       2.93347046       4.66424516
O       -3.16394614       3.39091345       5.70857527
C       -1.59581961       1.97286490       4.47615159
C       -0.89602250       1.56113279       5.54333942
C        0.26577233       0.67095452       5.53049162
C        1.49281610       1.10516842       5.01583146
C        2.58234529       0.24390663       5.02878889
O        3.77072356       0.67080303       4.50919136
C        2.47589342      -1.03787928       5.56062879
O        3.60083516      -1.82120285       5.53863376
C        1.26079835      -1.46939094       6.08721186
Br       1.08692696      -3.20368554       6.82648670
C        0.15357710      -0.61736542       6.07377922
C       -1.49270520       1.69741890       3.03938058
C       -0.68257461       0.88442907       2.26779584
H       -2.01818264       1.65698101      -0.79473720
H       -3.48281715       3.08783053       0.61626627
H       -3.98672602       3.80423217       3.20354484
H       -1.18504025       1.90671070       6.53584685
H        1.60633258       2.10454695       4.60370801
H        4.38310379      -0.08305493       4.62669170
H        3.36364015      -2.67110038       5.95640378
H       -0.79650351      -0.95044458       6.48610466
H        0.08511901       0.26123575       2.71155880
C        0.88317130      -0.88317130       0.88317130
C        2.03073275      -0.32910982       1.47854556
C        2.84874361      -1.11064146       2.29660309
C        2.48474776      -2.42990523       2.48110681
N        3.14900158      -3.36732990       3.26671522
C        2.50720971      -4.59373322       3.23964018
O        2.82802489      -5.60806317       3.82734680
C        1.32797188      -4.39600799       2.32085622
C        0.51696080      -5.42991912       2.05361478
C       -0.63827584      -5.41903362       1.15491604
C       -0.46464652      -5.32347346      -0.23064317
C       -1.57816188      -5.32925391      -1.06074180
O       -1.39949113      -5.21869561      -2.40993366
C       -2.86210426      -5.44506938      -0.53610902
O       -3.90508797      -5.44759728      -1.42591355
C       -3.03911915      -5.55511464       0.84102707
Br      -4.77221901      -5.72379834       1.58429486
C       -1.92918980      -5.54249231       1.68953420
C        1.35098047      -2.99697466       1.88154955
C        0.52987002      -2.22210460       1.08282490
H        2.28632825       0.71450447       1.30860266
H        3.73091096      -0.69049923       2.76550377
H        3.98473845      -3.20295013       3.80681444
H        0.70732109      -6.39290693       2.52736978
H        0.52732333      -5.24212622      -0.66752717
H       -2.30148581      -5.24953946      -2.78752068
H       -4.72380949      -5.54942303      -0.90395029
H       -2.06368419      -5.63029849       2.76554929
H       -0.36365491      -2.62821716       0.62311328
