177
Properties=species:S:1:pos:R:3 pbc="F F F"
C        0.00000000       0.00000000       0.00000000
C        0.88136324       0.88136324      -0.88136324
C        0.64180907       0.95037198      -2.25113450
C        1.45075145       1.75817160      -3.05470804
C        2.50198645       2.49907423      -2.49343917
C        2.73191000       2.42206530      -1.11303046
C        1.92102537       1.61257681      -0.30917983
C        3.32915963       3.35207780      -3.40061963
O        3.05402654       3.39874879      -4.59970402
C        4.47269406       4.15920515      -2.79621183
O        5.16212704       4.91780525      -3.79254649
C        6.11480569       4.23565414      -4.46983496
O        6.46123119       3.08456982      -4.26383114
C        6.62868722       5.05772856      -5.59233067
C        6.82281397       4.36643432      -6.79336360
C        7.27751219       5.06036826      -7.90117178
N        7.54536962       6.38691535      -7.83211293
C        7.37276388       7.05294002      -6.68194690
C        7.66409853       8.41077145      -6.67708449
C        7.53451377       9.19379862      -5.52856598
C        7.11565968       8.59993852      -4.34995961
Cl       6.95908407       9.54055484      -2.91969047
C        6.82090822       7.23882203      -4.32354643
C        6.92218200       6.44024965      -5.49572453
C        7.51281562       4.42923382      -9.21766186
C        8.50408616       4.93097807     -10.08514828
C        8.74753394       4.35326624     -11.33600184
C        7.99478627       3.25887040     -11.74573613
Br       8.31547447       2.47493364     -13.43484827
C        7.00255718       2.74235607     -10.91841508
C        6.76417654       3.32504072      -9.66728071
H       -0.16744026       0.38361697      -2.70481133
H        1.25466119       1.80633019      -4.12513771
H        3.53073454       2.97685869      -0.62987965
H        2.10851856       1.55923056       0.76091292
H        5.16619947       3.50486977      -2.25647683
H        4.05285432       4.88278616      -2.09006882
H        6.62182509       3.30031397      -6.84300333
H        8.00414361       8.87668341      -7.60057818
H        7.76763132      10.25423039      -5.56734880
H        6.51178470       6.80324017      -3.37763212
H        9.10265005       5.78975893      -9.78257135
H        9.52161183       4.76901536     -11.97545894
H        6.40338358       1.89272104     -11.23590533
H        5.96498519       2.90904799      -9.05653153
C       -0.88136324      -0.88136324      -0.88136324
C       -2.26650534      -0.82390613      -0.75290408
C       -3.07001217      -1.63225457      -1.56136435
C       -2.49318426      -2.50117153      -2.50014406
C       -1.09764321      -2.54866614      -2.62069641
C       -0.29386623      -1.73857173      -1.81034405
C       -3.40255629      -3.33614371      -3.34315707
O       -4.62104766      -3.22314088      -3.20829081
C       -2.78128136      -4.28204783      -4.36478186
O       -3.78195198      -5.00497310      -5.08555369
C       -4.24134452      -6.11559300      -4.46335728
O       -3.84071150      -6.56584914      -3.40307152
C       -5.39571055      -6.67544960      -5.20758630
C       -6.45961246      -7.11242108      -4.41057835
C       -7.58917213      -7.62739143      -5.02248867
N       -7.66974053      -7.72285824      -6.37179914
C       -6.64985343      -7.31699379      -7.14080358
C       -6.79500717      -7.44054525      -8.51640205
C       -5.78751844      -7.06322901      -9.40613092
C       -4.59766394      -6.56191456      -8.90597931
Cl      -3.33775353      -6.10087934      -9.98069651
C       -4.42171328      -6.43113980      -7.53042360
C       -5.45373912      -6.78569077      -6.61872629
C       -8.76988575      -8.11337782      -4.27644773
C       -9.57280976      -9.14631888      -4.80108388
C      -10.69526804      -9.62499812      -4.11653587
C      -11.03928924      -9.07126638      -2.88883717
Br     -12.55546459      -9.71019258      -1.95959920
C      -10.27397118      -8.04461341      -2.34474376
C       -9.15130768      -7.57028489      -3.03490540
H       -2.73229187      -0.15751678      -0.03117939
H       -4.15273085      -1.57930356      -1.45409468
H       -0.60248862      -3.20222239      -3.33276187
H        0.78819936      -1.78373378      -1.91130179
H       -2.07854184      -4.96885615      -3.88014808
H       -2.23545787      -3.68657632      -5.10367512
H       -6.38738932      -7.04894544      -3.32880763
H       -7.72597837      -7.84493481      -8.91049201
H       -5.94208737      -7.17101354     -10.47610960
H       -3.46912314      -6.05048426      -7.17304959
H       -9.32054353      -9.59116095      -5.76327585
H      -11.28819392     -10.42358976      -4.55430245
H      -10.54222142      -7.60010773      -1.38968079
H       -8.58958366      -6.75093050      -2.59005056
C       -0.88136324       0.88136324       0.88136324
C       -2.04706110       1.43618305       0.36007140
C       -2.85125249       2.24251184       1.16986676
C       -2.49381582       2.49817758       2.50250645
C       -1.31862086       1.93264289       3.01574201
C       -0.51390464       1.12521500       2.20366237
C       -3.39667667       3.36146430       3.32371609
O       -4.43056034       3.80140721       2.82051180
C       -3.01321642       3.64261049       4.77228415
O       -3.97636712       4.48020731       5.41590435
C       -3.80998376       5.80647632       5.20383472
O       -2.90119989       6.32840932       4.58002295
C       -4.96165464       6.55909720       5.75799462
C       -5.43606196       7.59758628       4.94896364
C       -6.52436901       8.33794405       5.37673916
N       -7.12186135       8.07771918       6.56481738
C       -6.66548931       7.09211848       7.35004302
C       -7.32201453       6.87547015       8.55446979
C       -6.91802824       5.88608603       9.45276410
C       -5.81947193       5.10166113       9.14442475
Cl      -5.29567557       3.88435527      10.23929854
C       -5.13824341       5.29937859       7.94565467
C       -5.56085476       6.28520256       7.01209886
C       -7.10744718       9.45274823       4.59951589
C       -7.73194823      10.53293624       5.25532805
C       -8.29174776      11.60032710       4.54472716
C       -8.24055149      11.60320887       3.15563244
Br      -8.99696337      13.03963064       2.18866237
C       -7.63895173      10.54934915       2.47502746
C       -7.08006661       9.48408576       3.19234560
H       -2.34078360       1.25021057      -0.67000613
H       -3.76186384       2.67112918       0.75313607
H       -0.99901484       2.09810641       4.04035162
H        0.39656053       0.69186409       2.61153265
H       -2.01264653       4.08532496       4.82957459
H       -3.00887334       2.69550742       5.32132855
H       -4.94677464       7.81441967       4.00394807
H       -8.17929786       7.49900052       8.80310682
H       -7.46160328       5.74482443      10.38278279
H       -4.27065508       4.67733623       7.74466568
H       -7.78411054      10.54723538       6.34363441
H       -8.76360926      12.41504934       5.08742753
H       -7.60349922      10.53991916       1.38859157
H       -6.63816885       8.66613039       2.62626548
C        0.88136324      -0.88136324       0.88136324
C        0.40768841      -1.32110488       2.11452225
C        1.21738467      -2.12767318       2.91857324
C        2.50292477      -2.49716659       2.49440848
C        2.96755237      -2.04910495       1.25034844
C        2.15565582      -1.24123456       0.44589162
C        3.32097220      -3.36809559       3.39278928
O        2.84075317      -3.75248897       4.45923720
C        4.71848945      -3.77261855       2.93700306
O        5.36574870      -4.60142072       3.90530936
C        5.97942953      -3.93206165       4.90880361
O        6.07278992      -2.72077261       5.01606962
C        6.45065579      -4.88511197       5.94297870
C        6.23989189      -4.47774225       7.26497775
C        6.62689510      -5.31663629       8.29552083
N        7.21291106      -6.51144219       8.04004466
C        7.42836741      -6.90282842       6.77645498
C        8.03193681      -8.13829897       6.58171869
C        8.31606007      -8.63320952       5.30760879
C        8.00070395      -7.86574234       4.19911151
Cl       8.35082811      -8.44830622       2.62019505
C        7.39908196      -6.62030531       4.36388941
C        7.07975838      -6.12168678       5.65671102
C        6.44763771      -4.98630957       9.72576402
C        7.34531009      -5.48198316      10.69291926
C        7.19916890      -5.18521903      12.05241409
C        6.14204096      -4.38582183      12.47153001
Br       5.93611531      -3.98299351      14.30614755
C        5.23222889      -3.88589716      11.54520230
C        5.38443831      -4.18635727      10.18570240
H       -0.58520488      -1.04526760       2.46092532
H        0.83738293      -2.46752604       3.88122013
H        3.95329900      -2.30849039       0.87568349
H        2.52616728      -0.89817039      -0.51750146
H        5.32511054      -2.88774107       2.71469447
H        4.62742194      -4.37250257       2.02578481
H        5.78363888      -3.51336130       7.46814221
H        8.29045764      -8.73794270       7.45300485
H        8.78460489      -9.60721244       5.19739317
H        7.18155163      -6.03823915       3.47286621
H        8.17871761      -6.11230775      10.38395497
H        7.91315846      -5.58597902      12.76694864
H        4.39757775      -3.26796770      11.86646451
H        4.64099183      -3.79705111       9.49252177
