198
Properties=species:S:1:pos:R:3 pbc="F F F"
C        1.79126726       1.79126726      -1.79126726
C        1.55171310       1.86027600      -3.16103852
C        2.36065547       2.66807563      -3.96461206
C        3.41189047       3.40897825      -3.40334319
C        3.64181403       3.33196932      -2.02293448
C        2.83092939       2.52248084      -1.21908385
C        4.23906365       4.26198183      -4.31052366
O        3.96393056       4.30865281      -5.50960805
C        5.38259809       5.06910918      -3.70611586
O        6.07203106       5.82770927      -4.70245051
C        7.02470972       5.14555817      -5.37973899
O        7.37113521       3.99447385      -5.17373517
C        7.53859125       5.96763258      -6.50223470
C        7.73271799       5.27633834      -7.70326762
C        8.18741621       5.97027228      -8.81107580
N        8.45527365       7.29681938      -8.74201696
C        8.28266791       7.96284404      -7.59185093
C        8.57400255       9.32067548      -7.58698852
C        8.44441780      10.10370265      -6.43847000
C        8.02556370       9.50984254      -5.25986363
Cl       7.86898809      10.45045887      -3.82959449
C        7.73081224       8.14872605      -5.23345046
C        7.83208603       7.35015368      -6.40562855
C        8.42271964       5.33913784     -10.12756589
C        9.41399019       5.84088209     -10.99505231
C        9.65743796       5.26317027     -12.24590587
C        8.90469029       4.16877442     -12.65564015
Br       9.22537849       3.38483767     -14.34475229
C        7.91246121       3.65226010     -11.82831911
C        7.67408057       4.23494475     -10.57718473
H        0.74246377       1.29352099      -3.61471536
H        2.16456521       2.71623422      -5.03504173
H        4.44063856       3.88676271      -1.53978367
H        3.01842259       2.46913459      -0.14899110
H        6.07610349       4.41477380      -3.16638086
H        4.96275835       5.79269019      -2.99997285
H        7.53172911       4.21021800      -7.75290735
H        8.91404763       9.78658744      -8.51048220
H        8.67753534      11.16413441      -6.47725283
H        7.42168873       7.71314419      -4.28753614
H       10.01255408       6.69966295     -10.69247537
H       10.43151585       5.67891938     -12.88536297
H        7.31328760       2.80262506     -12.14580936
H        6.87488921       3.81895202      -9.96643556
C       -1.79126726      -1.79126726      -1.79126726
C       -2.90457776      -2.42383104      -1.24461882
C       -3.70893827      -3.22990134      -2.05450355
C       -3.40393468      -3.40767849      -3.41259875
C       -2.28125064      -2.76433718      -3.95113001
C       -1.47630781      -1.95724872      -3.13893755
C       -4.30471333      -4.27474962      -4.23210619
O       -5.29255649      -4.78560882      -3.70402612
C       -3.97808970      -4.47146521      -5.70826821
O       -4.93176395      -5.32380864      -6.34661826
C       -4.69558897      -6.64893116      -6.20548673
O       -3.73551211      -7.15487093      -5.64896119
C       -5.83698126      -7.42948164      -6.74199563
C       -6.22492274      -8.52490039      -5.96250082
C       -7.29764524      -9.29593274      -6.37518632
N       -7.96202432      -9.01080001      -7.52128565
C       -7.58855342      -7.97009009      -8.27871937
C       -8.31063987      -7.73050098      -9.44052569
C       -7.99497936      -6.68337948     -10.30823160
C       -6.91969442      -5.86247758     -10.01309788
Cl      -6.50413727      -4.57333352     -11.07157067
C       -6.17408402      -6.08174795      -8.85715678
C       -6.50681726      -7.12779839      -7.95325260
C       -7.79207557     -10.47121854      -5.62612926
C       -8.39741809     -11.54900614      -6.30350036
C       -8.87392979     -12.67285773      -5.61972658
C       -8.75678835     -12.73623537      -4.23608115
Br      -9.40060311     -14.24926831      -3.30509703
C       -8.17192836     -11.68692941      -3.53418264
C       -7.69655151     -10.56493979      -4.22471874
H       -3.15720634      -2.29886585      -0.19462792
H       -4.57839176      -3.71969139      -1.61775801
H       -2.00346395      -2.86785692      -4.99586408
H       -0.60679413      -1.46314365      -3.56661049
H       -2.96233789      -4.86314430      -5.83177596
H       -4.04272076      -3.50132277      -6.21137785
H       -5.68201683      -8.76085868      -5.05197894
H       -9.14962750      -8.38210924      -9.67938053
H       -8.58792056      -6.52608601     -11.20491601
H       -5.32700751      -5.42897676      -8.66638480
H       -8.50047003     -11.51644521      -7.38777717
H       -9.33362020     -13.48363190      -6.17854610
H       -8.08541840     -11.72505729      -2.45124633
H       -7.26579717      -9.75342070      -3.64105892
C       -1.79126726       1.79126726       1.79126726
C       -2.93391367       2.38133108       1.25778287
C       -3.73817938       3.18754275       2.06762103
C       -3.40381341       3.40789951       3.41249900
C       -2.25172566       2.80709147       3.93790070
C       -1.44690977       1.99981743       3.12576688
C       -4.30576604       4.27289645       4.23290665
O       -5.31942078       4.74496807       3.71780257
C       -3.94731403       4.51576800       5.69474109
O       -4.90630277       5.36004467       6.33584341
C       -4.70800553       6.68660539       6.15539595
O       -3.77559249       7.20200189       5.56174985
C       -5.85529939       7.45178950       6.70136964
C       -6.29083915       8.51663993       5.90484488
C       -7.37237547       9.27084506       6.32554377
N       -8.00015431       8.99875244       7.49520323
C       -7.58104141       7.98764255       8.26867892
C       -8.26726987       7.76001822       9.45437845
C       -7.90299201       6.74389146      10.33970697
C       -6.81465323       5.94294532      10.03767132
Cl      -6.33950528       4.69238471      11.11715146
C       -6.10424457       6.15100681       8.85773737
C       -6.48646656       7.16470038       7.93670132
C       -7.91562955      10.41361837       5.56017544
C       -8.53134592      11.49295711       6.22562155
C       -9.05372511      12.58646382       5.52632516
C       -8.97308197      12.61706001       4.13896289
Br      -9.67890838      14.08891342       3.18714665
C       -8.37918607      11.56503688       3.44881746
C       -7.85781901      10.47353680       4.15485424
H       -3.20955431       2.22301513       0.21813068
H       -4.63068155       3.64389106       1.64126856
H       -1.95052230       2.94447284       4.97218980
H       -0.55446426       1.53892443       3.54315959
H       -2.93921783       4.93591644       5.78212388
H       -3.97423306       3.55760576       6.22358257
H       -5.77726350       8.74261168       4.97497928
H       -9.11651339       8.39627008       9.69833380
H       -8.46894723       6.59491860      11.25505675
H       -5.24567851       5.51503625       8.66165429
H       -8.60623025      11.48579088       7.31267127
H       -9.51997799      13.39956682       6.07625340
H       -8.32094286      11.57738512       2.36339404
H       -7.42108874       9.65832120       3.58086684
C        1.79126726      -1.79126726       1.79126726
C        1.77580739      -1.62386757       3.17335266
C        2.58401830      -2.43245862       3.97686624
C        3.41088142      -3.41026476       3.40306574
C        3.41631110      -3.56976789       2.01063883
C        2.60639918      -2.75924497       1.20684993
C        4.24770323      -4.25126067       4.31260524
O        4.17228270      -4.08042015       5.52948857
C        5.14802151      -5.31518988       3.69461173
O        5.87872126      -6.02845579       4.69501380
C        7.01808742      -5.42516449       5.10675495
O        7.48553472      -4.38901372       4.66479579
C        7.58947694      -6.15318518       6.26579641
C        8.07722052      -5.34015846       7.29494497
C        8.60664496      -5.93538340       8.42673594
N        8.66780609      -7.28415429       8.54214960
C        8.21312591      -8.06887302       7.55536394
C        8.30343432      -9.44294664       7.73528558
C        7.87436212     -10.34875706       6.76347126
C        7.35388735      -9.86721602       5.57416651
Cl       6.82914607     -10.96237292       4.35752246
C        7.25550433      -8.49381690       5.36366752
C        7.66310385      -7.56475885       6.36000555
C        9.14523421      -5.17148965       9.57269951
C       10.18552461      -5.70272524      10.36167474
C       10.71353159      -5.00164987      11.45133264
C       10.20295859      -3.75019113      11.77595514
Br      10.90864432      -2.79841936      13.24790477
C        9.17052225      -3.19867111      11.02384706
C        8.64670528      -3.90548231       9.93402246
H        1.14236767      -0.87158141       3.63675103
H        2.56408651      -2.29453228       5.05722237
H        4.03637256      -4.31283938       1.51797301
H        2.61873662      -2.89063007       0.12718158
H        5.82789010      -4.86899636       2.96037169
H        4.51786103      -6.05173834       3.18582202
H        8.04102668      -4.25938946       7.19443832
H        8.72273168      -9.82281068       8.66557491
H        7.95743801     -11.41674804       6.94473653
H        6.85833010      -8.15188496       4.41215401
H       10.59701563      -6.68337146      10.12430532
H       11.51616267      -5.44524683      12.03438870
H        8.75961874      -2.22472583      11.27737745
H        7.82438549      -3.45338220       9.38250910
C       -0.00445707       0.01189536      -1.78238275
H       -0.66409135       0.67374010      -2.43557963
H        0.65740317      -0.63156657      -2.45157240
C       -0.90989263      -0.90692880      -0.91072765
C        0.90977584       0.90977584      -0.90977584
C       -0.00465871       1.77757030       0.00794375
H       -0.66225468       2.44313916      -0.64384735
H        0.64322798       2.43503045       0.67728295
C       -1.78241447       0.00034974      -0.00472694
H       -2.45427497      -0.65498947       0.64260836
H       -2.43311707       0.67328779      -0.65473579
C       -0.91132561       0.90220522       0.91563759
C       -0.01476271      -0.02253852       1.78660255
H       -0.67934791      -0.69751639       2.42135241
H        0.63392994       0.61504881       2.47327442
C        0.01484550      -1.77751727      -0.01636693
H        0.67870853      -2.42144646      -0.68295456
H       -0.62264859      -2.45592969       0.64226336
C        1.78714474       0.01002794       0.00389507
H        2.44202412       0.67113390       0.66197326
H        2.45385902      -0.65136977      -0.64189061
C        0.91606151      -0.90478549       0.90901405
