194
Properties=species:S:1:pos:R:3 pbc="F F F"
C        1.79177854       1.79177854      -1.79177854
C        1.67110254       1.72342816      -3.18228863
C        2.49674403       2.50567337      -3.99428432
C        3.44647371       3.34157079      -3.40165849
C        3.56146178       3.40911123      -2.00581173
C        2.72633966       2.63876888      -1.19842737
C        4.44187516       4.07049734      -4.21569735
O        5.60045466       4.07738496      -3.81700339
N        3.96448231       4.74867889      -5.32223932
C        4.79965892       5.50697062      -6.18344223
C        6.11383512       5.08356471      -6.43197038
C        6.98226740       5.86629168      -7.18263476
O        8.26235846       5.39765388      -7.32533210
C        9.03707141       6.20117649      -8.22140713
C        8.74755504       7.67632123      -8.00144831
O        7.38163014       7.95873558      -8.34510795
C        6.54080514       7.07939860      -7.70863198
C        5.20771277       7.46561048      -7.56805985
C        4.33092298       6.69964559      -6.77940074
C        2.94774719       7.19377112      -6.48057945
O        2.09284025       6.38942919      -6.11280516
C        2.61018722       8.64468653      -6.51694371
C        3.50312146       9.55645025      -5.92409799
C        3.23003605      10.92562137      -5.92487481
C        2.04469818      11.39646497      -6.48029535
C        1.13372153      10.49939159      -7.03913583
C        1.41153420       9.12526526      -7.06468791
Br       0.12322689       8.01605497      -7.91304891
H        0.95521288       1.04675870      -3.64130345
H        2.43016014       2.41898411      -5.07564374
H        4.31846597       4.04626670      -1.55126032
H        2.83032253       2.68954358      -0.11793537
H        2.96917367       4.98571249      -5.34330026
H        6.48407698       4.14365334      -6.02942214
H       10.09267252       5.98636431      -8.02797234
H        8.80521625       5.89732143      -9.24912164
H        9.38949620       8.29414583      -8.63597885
H        8.91880937       7.96845220      -6.95622692
H        4.89107462       8.39402403      -8.03470852
H        4.42094844       9.21335334      -5.45045776
H        3.93910840      11.62263234      -5.48335141
H        1.82487388      12.46181359      -6.47356727
H        0.20586352      10.88396977      -7.45805457
C       -1.79177854      -1.79177854      -1.79177854
C       -1.53733801      -1.87625209      -3.16322924
C       -2.35983255      -2.65752190      -3.97934727
C       -3.43995511      -3.33801285      -3.41173504
C       -3.68917029      -3.25271902      -2.03449544
C       -2.85806770      -2.48458021      -1.22088800
C       -4.42501205      -4.05105098      -4.25200682
O       -5.61006144      -3.91080113      -3.97398044
N       -3.91908957      -4.87903834      -5.23727261
C       -4.74407066      -5.64069525      -6.10530585
C       -5.98003148      -5.12555204      -6.52378669
C       -6.85060662      -5.89713871      -7.28344850
O       -8.05795411      -5.32958972      -7.59780060
C       -8.82442109      -6.14515355      -8.49008038
C       -8.70753679      -7.61072217      -8.10706562
O       -7.35151220      -8.05104546      -8.28291601
C       -6.48797390      -7.19280368      -7.64805814
C       -5.21956659      -7.68379695      -7.33801957
C       -4.34590993      -6.92572874      -6.53833064
C       -3.05340317      -7.51217249      -6.05652211
O       -2.15879587      -6.75677591      -5.67950281
C       -2.86288072      -8.98416678      -5.92476995
C       -3.89446041      -9.74501347      -5.34419581
C       -3.76278655     -11.12648990      -5.19125578
C       -2.58527572     -11.75833127      -5.57785152
C       -1.54044355     -11.01024689      -6.12155851
C       -1.67387436      -9.62609810      -6.30151491
Br      -0.20710148      -8.73197503      -7.11325427
H       -0.71730193      -1.31841269      -3.60756041
H       -2.18556458      -2.68748654      -5.05173687
H       -4.54551371      -3.76808598      -1.60239330
H       -3.06565860      -2.41568573      -0.15645715
H       -2.95527235      -5.20757191      -5.13534216
H       -6.28847121      -4.11958642      -6.24909483
H       -9.86608039      -5.81559512      -8.42533367
H       -8.46934403      -5.96976657      -9.51254873
H       -9.34771320      -8.22802224      -8.74388544
H       -9.00300591      -7.77829646      -7.06218613
H       -4.95715970      -8.67994331      -7.68270416
H       -4.81241617      -9.27263052      -4.99971286
H       -4.57652360     -11.70688107      -4.76168749
H       -2.47622735     -12.83318594      -5.45084145
H       -0.62179577     -11.51909151      -6.40700058
C       -1.79177854       1.79177854       1.79177854
C       -3.16879329       1.84750100       1.56052505
C       -3.97574086       2.67615728       2.34480358
C       -3.38961054       3.45233669       3.34775577
C       -2.00784205       3.39044497       3.57809772
C       -1.20789672       2.55170998       2.80392921
C       -4.17392972       4.45449849       4.09964164
O       -3.65692134       5.54913951       4.28878217
N       -5.39890447       4.04383859       4.59265747
C       -6.25050598       4.89040312       5.34916267
C       -6.30371128       6.26274696       5.06291197
C       -7.04559571       7.12619464       5.85940349
O       -6.99256753       8.45700845       5.53576844
C       -7.89052262       9.24324634       6.32588606
C       -7.88219776       8.77268108       7.77044573
O       -8.40199530       7.43572743       7.84775094
C       -7.75820361       6.62364937       6.94698274
C       -7.80909073       5.24963255       7.18265982
C       -7.03262538       4.37156124       6.40578269
C       -6.94571041       2.91747282       6.75891454
O       -6.57764462       2.11581086       5.90161912
C       -7.19258951       2.43296717       8.14626078
C       -6.62147659       3.14492487       9.21726823
C       -6.81646777       2.72853759      10.53552687
C       -7.54856236       1.57508389      10.79781225
C       -8.08982167       0.83964744       9.74277984
C       -7.91971019       1.26440316       8.41737401
Br      -8.76165057       0.21422253       7.07645768
H       -3.61713982       1.26891305       0.75722216
H       -5.03963973       2.74999602       2.13515224
H       -1.55472774       4.01438803       4.34687721
H       -0.13651360       2.51873997       2.98254791
H       -5.55508006       3.03866170       4.70444466
H       -5.75348533       6.68054767       4.22311946
H       -7.56043581      10.28477885       6.26179451
H       -8.89306372       9.17082930       5.88776630
H       -8.51392066       9.41631845       8.38938177
H       -6.86747219       8.78444112       8.19157518
H       -8.41543841       4.89368812       8.01068064
H       -6.01419326       4.03050943       9.04005685
H       -6.38856534       3.30032075      11.35620606
H       -7.69383565       1.24296972      11.82344937
H       -8.64917341      -0.06688047       9.96559491
C        1.79177854      -1.79177854       1.79177854
C        2.96987514      -2.33477601       1.27216818
C        3.76450210      -3.16701019       2.06518942
C        3.36151935      -3.45709537       3.37108828
C        2.18022305      -2.90713754       3.88902416
C        1.39761555      -2.06548481       3.10043555
C        4.08413815      -4.44913824       4.19479346
O        3.41107856      -5.24567834       4.83808611
N        5.46262793      -4.34462606       4.22814654
C        6.28522123      -5.21404019       4.99081035
C        5.91937580      -6.55886459       5.15112981
C        6.64991633      -7.39951008       5.98176743
O        6.18443241      -8.68128043       6.11963159
C        7.07450546      -9.50207736       6.88307220
C        7.63659612      -8.72640332       8.06232514
O        8.45399950      -7.64533452       7.58613966
C        7.76831633      -6.90762092       6.65289848
C        8.21409791      -5.60624657       6.42103863
C        7.46147647      -4.73656153       5.61193131
C        7.83688786      -3.29017613       5.49503377
O        7.41578312      -2.63932469       4.53996679
C        8.61848457      -2.59623593       6.55709695
C        8.26605783      -2.81604914       7.90156273
C        8.96198870      -2.18449547       8.93404807
C        9.98980986      -1.29572154       8.63592711
C       10.32543115      -1.04109591       7.30572189
C        9.64810617      -1.68992200       6.26345919
Br      10.24336579      -1.30916349       4.49980149
H        3.26308779      -2.13530224       0.24488501
H        4.65761197      -3.62212252       1.64505350
H        1.86096722      -3.15489840       4.90012737
H        0.47813468      -1.65285294       3.50681386
H        5.87873816      -3.44466718       3.97478108
H        5.04878836      -6.96601813       4.64234597
H        6.50523866     -10.36894832       7.23282218
H        7.87322584      -9.85729095       6.22114253
H        8.26144740      -9.37208585       8.68608763
H        6.83560269      -8.31562113       8.69226467
H        9.11789520      -5.27650143       6.92541053
H        7.44308566      -3.47836547       8.16330842
H        8.69467559      -2.38011131       9.97030525
H       10.52727547      -0.79482476       9.43815451
H       11.12380470      -0.33356416       7.09051900
C       -0.00445707       0.01189536      -1.78238275
H       -0.66409135       0.67374010      -2.43557963
H        0.65740317      -0.63156657      -2.45157240
C       -0.90989263      -0.90692880      -0.91072765
C        0.90977584       0.90977584      -0.90977584
C       -0.00465871       1.77757030       0.00794375
H       -0.66225468       2.44313916      -0.64384735
H        0.64322798       2.43503045       0.67728295
C       -1.78241447       0.00034974      -0.00472694
H       -2.45427497      -0.65498947       0.64260836
H       -2.43311707       0.67328779      -0.65473579
C       -0.91132561       0.90220522       0.91563759
C       -0.01476271      -0.02253852       1.78660255
H       -0.67934791      -0.69751639       2.42135241
H        0.63392994       0.61504881       2.47327442
C        0.01484550      -1.77751727      -0.01636693
H        0.67870853      -2.42144646      -0.68295456
H       -0.62264859      -2.45592969       0.64226336
C        1.78714474       0.01002794       0.00389507
H        2.44202412       0.67113390       0.66197326
H        2.45385902      -0.65136977      -0.64189061
C        0.91606151      -0.90478549       0.90901405
