186
Properties=species:S:1:pos:R:3 pbc="F F F"
Cl       3.83476751       7.92095740     -12.32393154
C        5.10546933       8.21584235     -11.20263202
C        6.17222463       9.03612580     -11.56442888
C        7.20574813       9.27463289     -10.65342693
C        7.17676286       8.69109678      -9.38118815
C        6.09100763       7.88104788      -9.02488317
C        5.05982067       7.63743438      -9.93631225
S        8.49816379       9.03534852      -8.23164576
C        9.06656331       7.40062881      -8.00946335
O        8.52562874       6.58468935      -7.05744840
C        9.13179804       5.35050863      -7.11162270
C        8.79176036       4.24004231      -6.28801344
C        7.62253244       4.08601851      -5.65239606
S        6.23742219       5.11196080      -5.61593295
C        5.33455968       4.00208666      -4.61745081
N        4.14639116       4.28458156      -4.21338275
C        3.40725014       3.41558378      -3.40348205
C        2.12501847       3.04614630      -3.82238030
C        1.31504490       2.23631070      -3.02185347
C        1.79132255       1.79132255      -1.79132255
C        3.06050262       2.16157578      -1.35064295
C        3.85749508       2.98747387      -2.14878486
N        6.06858390       2.88596476      -4.37850158
C        7.34262502       2.85168171      -4.86655302
O        8.13285520       1.94058292      -4.67987451
C       10.11037133       5.41507330      -8.09777203
C       10.04903687       6.70261200      -8.66767187
H        6.20506542       9.49499794     -12.54903007
H        8.03076719       9.92067571     -10.94570463
H        6.03668304       7.43439352      -8.03424449
H        4.22639630       7.00231831      -9.64805500
H        9.53537962       3.44879682      -6.21006565
H        1.74553314       3.41408915      -4.77306731
H        0.31613208       1.97468810      -3.36112617
H        3.42874982       1.83286231      -0.38231123
H        4.82409448       3.31326541      -1.77372629
H        5.72042756       2.11261024      -3.83379262
H       10.76873410       4.60524801      -8.38175730
C       10.88859359       7.13293841      -9.75558901
C       11.59172234       7.49333677     -10.66671962
Br      12.72862206       8.07607045     -12.13994074
Cl      -5.17473499      -5.99917341     -12.90574805
C       -6.03268381      -6.82610245     -11.66515745
C       -6.96955316      -7.80097181     -12.00225434
C       -7.66788832      -8.47208671     -10.99383291
C       -7.43386703      -8.16763508      -9.64754568
C       -6.47836676      -7.19651579      -9.32205613
C       -5.78337443      -6.52107825     -10.32911463
S       -8.32270492      -9.05982624      -8.38262690
C       -9.13164271      -7.70228317      -7.64272959
O       -8.54128266      -6.98356060      -6.64292324
C       -9.37595400      -5.95918621      -6.25878916
C       -9.06735969      -4.98716167      -5.26529476
C       -7.83035060      -4.67147705      -4.85911936
S       -6.30495396      -5.29717735      -5.36318462
C       -5.41926727      -4.21762390      -4.31720598
N       -4.13572933      -4.26370745      -4.24491868
C       -3.40462137      -3.41589004      -3.40580455
C       -2.37206797      -2.65628612      -3.96519099
C       -1.56446929      -1.84454954      -3.16419024
C       -1.79132255      -1.79132255      -1.79132255
C       -2.80582451      -2.55274486      -1.21415198
C       -3.59731531      -3.37685506      -2.01958344
N       -6.27669088      -3.39621927      -3.66014008
C       -7.61308082      -3.58997910      -3.85779982
O       -8.49587986      -2.96636784      -3.29106492
C      -10.53966274      -6.07148083      -7.01207309
C      -10.36849312      -7.15981178      -7.89101585
H       -7.15905649      -8.04611276     -13.04392418
H       -8.39329173      -9.23455857     -11.26929722
H       -6.26455273      -6.95868058      -8.28208774
H       -5.04885089      -5.76600080     -10.06191791
H       -9.90968844      -4.44329681      -4.84125684
H       -2.18106314      -2.71732943      -5.03429702
H       -0.75810706      -1.27496745      -3.61887184
H       -2.97384586      -2.52949581      -0.14058169
H       -4.35114156      -4.00610346      -1.55384115
H       -5.96377482      -2.68517328      -3.01788233
H      -11.39710242      -5.41580650      -6.94283049
C      -11.35324288      -7.56240564      -8.86147249
C      -12.17797081      -7.89957800      -9.67422992
Br     -13.51148612      -8.44475719     -10.98838995
Cl     -11.43287222       9.37668162       3.27010261
C      -10.70356286       9.03117199       4.78920886
C      -11.21388847       9.60880390       5.95008693
C      -10.62014383       9.32900751       7.18465660
C       -9.51362371       8.47473671       7.26068737
C       -9.02022261       7.88866185       6.08805422
C       -9.60935814       8.17157954       4.85262963
S       -8.79378887       8.11697492       8.85439427
C       -7.19161980       8.73674039       8.54829528
O       -6.22083822       7.95145999       7.99546828
C       -5.06899202       8.68755580       7.83738155
C       -3.86456082       8.19923854       7.25601675
C       -3.78165886       7.14224317       6.43704498
S       -5.01789266       6.08897964       5.85844364
C       -3.90022508       5.17381883       4.88005324
N       -4.29139186       4.15713802       4.19582558
C       -3.41202278       3.40163077       3.41266241
C       -3.72779139       3.20067627       2.06507742
C       -2.92273381       2.39824256       1.25223270
C       -1.79132255       1.79132255       1.79132255
C       -1.46919302       1.96790044       3.13562789
C       -2.28997249       2.75681555       3.94696578
N       -2.65423293       5.70290365       4.97591366
C       -2.47828617       6.75339491       5.82917866
O       -1.40595259       7.28919142       6.05816861
C       -5.31775161       9.95679459       8.34867046
C       -6.66023450       9.98216383       8.77692242
H      -12.07282979      10.27296667       5.90329697
H      -11.03051245       9.78212512       8.08450996
H       -8.17470649       7.20492064       6.12569391
H       -9.21242247       7.71401147       3.95033566
H       -2.95825289       8.76128558       7.47470361
H       -4.62487469       3.65619152       1.65162338
H       -3.19632800       2.24391898       0.21169937
H       -0.59812264       1.48029106       3.56550966
H       -2.05974417       2.84599780       5.00534420
H       -1.86479371       5.32936513       4.47267158
H       -4.60717836      10.77178025       8.37678080
C       -7.29763796      11.14849476       9.33098830
C       -7.83146335      12.12529691       9.79501847
Br      -8.69461386      13.70470338      10.54531602
Cl      10.95472585      -9.96748927       3.15744133
C       10.37008406      -9.46023971       4.69361994
C       10.92537332      -9.99131286       5.85609312
C       10.44913411      -9.57998641       7.10468743
C        9.41512380      -8.64037366       7.19355034
C        8.87636732      -8.10303237       6.01753899
C        9.34773559      -8.51717136       4.76866035
S        8.84647888      -8.11636637       8.80231281
C        7.18564548      -8.63197743       8.65903257
O        6.23365040      -7.81600827       8.11810782
C        5.02373912      -8.47123792       8.09895233
C        3.81610248      -7.93477175       7.56894189
C        3.74608287      -6.93535716       6.67950697
S        5.00611230      -6.02345088       5.93575276
C        3.88471551      -5.09729548       4.97208616
N        4.29361712      -4.16465641       4.18608193
C        3.41280955      -3.40164209       3.41186432
C        3.63808366      -3.32161181       2.03384960
C        2.83224436      -2.51971669       1.22124802
C        1.79132255      -1.79132255       1.79132255
C        1.56120230      -1.84685577       3.16466328
C        2.38352232      -2.63661520       3.97361629
N        2.61528800      -5.52141451       5.19634773
C        2.43095586      -6.49213343       6.13777046
O        1.34394175      -6.92675319       6.48261768
C        5.22011492      -9.71626561       8.68683612
C        6.58621314      -9.81373816       9.01936945
H       11.72889043     -10.72084876       5.79935424
H       10.89389444      -9.99811564       8.00513744
H        8.08689262      -7.35570112       6.06272731
H        8.91646426      -8.09581637       3.86448898
H        2.89155605      -8.40892496       7.89376108
H        4.46631328      -3.87258994       1.59378637
H        3.03574114      -2.46103639       0.15516883
H        0.76237849      -1.26478130       3.61676358
H        2.22914440      -2.63255857       5.04938321
H        1.81820172      -5.12528472       4.72334399
H        4.45770333     -10.47047453       8.82756155
C        7.17968886     -10.98309899       9.61433317
C        7.67672477     -11.96243868      10.11261528
Br       8.48038980     -13.54594814      10.91829532
C       -0.00445707       0.01189536      -1.78238275
H       -0.66409135       0.67374010      -2.43557963
H        0.65740317      -0.63156657      -2.45157240
C       -0.90989263      -0.90692880      -0.91072765
C        0.90977584       0.90977584      -0.90977584
C       -0.00465871       1.77757030       0.00794375
H       -0.66225468       2.44313916      -0.64384735
H        0.64322798       2.43503045       0.67728295
C       -1.78241447       0.00034974      -0.00472694
H       -2.45427497      -0.65498947       0.64260836
H       -2.43311707       0.67328779      -0.65473579
C       -0.91132561       0.90220522       0.91563759
C       -0.01476271      -0.02253852       1.78660255
H       -0.67934791      -0.69751639       2.42135241
H        0.63392994       0.61504881       2.47327442
C        0.01484550      -1.77751727      -0.01636693
H        0.67870853      -2.42144646      -0.68295456
H       -0.62264859      -2.45592969       0.64226336
C        1.78714474       0.01002794       0.00389507
H        2.44202412       0.67113390       0.66197326
H        2.45385902      -0.65136977      -0.64189061
C        0.91606151      -0.90478549       0.90901405
