157
Properties=species:S:1:pos:R:3 pbc="F F F"
C        0.00000000       0.00000000       0.00000000
Cl       2.92486349       7.01105337     -11.41402751
C        4.19556531       7.30593833     -10.29272800
C        5.26232061       8.12622178     -10.65452485
C        6.29584410       8.36472886      -9.74352291
C        6.26685884       7.78119275      -8.47128413
C        5.18110360       6.97114385      -8.11497915
C        4.14991665       6.72753036      -9.02640822
S        7.58825977       8.12544449      -7.32174173
C        8.15665929       6.49072478      -7.09955933
O        7.61572471       5.67478533      -6.14754438
C        8.22189401       4.44060461      -6.20171868
C        7.88185634       3.33013829      -5.37810942
C        6.71262842       3.17611448      -4.74249203
S        5.32751816       4.20205677      -4.70602893
C        4.42465565       3.09218264      -3.70754678
N        3.23648713       3.37467753      -3.30347872
C        2.49734612       2.50567975      -2.49357802
C        1.21511445       2.13624228      -2.91247628
C        0.40514087       1.32640668      -2.11194945
C        0.88141853       0.88141853      -0.88141853
C        2.15059860       1.25167176      -0.44073892
C        2.94759106       2.07756985      -1.23888083
N        5.15867987       1.97606074      -3.46859756
C        6.43272100       1.94177768      -3.95664899
O        7.22295117       1.03067889      -3.76997048
C        9.20046731       4.50516927      -7.18786800
C        9.13913285       5.79270798      -7.75776785
Br      10.23165526       6.35269545      -9.17348383
H        5.29516140       8.58509392     -11.63912605
H        7.12086316       9.01077168     -10.03580060
H        5.12677902       6.52448949      -7.12434047
H        3.31649227       6.09241429      -8.73815098
H        8.62547559       2.53889279      -5.30016163
H        0.83562911       2.50418512      -3.86316328
H       -0.59377195       1.06478408      -2.45122214
H        2.51884580       0.92295829       0.52759280
H        3.91419045       2.40336138      -0.86382226
H        4.81052353       1.20270622      -2.92388860
H        9.85883008       3.69534398      -7.47185327
Cl      -3.65302720      -5.84390592     -11.85301125
C       -4.69604646      -6.46427458     -10.63391060
C       -5.69042900      -7.37969019     -10.97294805
C       -6.53908692      -7.88282586      -9.98218309
C       -6.39783518      -7.46937462      -8.65212592
C       -5.38431688      -6.56048989      -8.32241983
C       -4.53866812      -6.05263611      -9.31255100
S       -7.48008146      -8.14925661      -7.40610792
C       -8.21433432      -6.65837158      -6.87423751
O       -7.64802820      -5.90043741      -5.88958881
C       -8.40872995      -4.77250868      -5.68297868
C       -8.09614566      -3.73889347      -4.75506492
C       -6.87546268      -3.49688386      -4.25888838
S       -5.38014795      -4.30343498      -4.55202093
C       -4.48972300      -3.20981116      -3.52485092
N       -3.22865063      -3.36342442      -3.32256834
C       -2.49572195      -2.50600217      -2.49487977
C       -1.34735840      -1.90087013      -3.01560448
C       -0.53876040      -1.08982074      -2.21491586
C       -0.88141853      -0.88141853      -0.88141853
C       -2.01366507      -1.48821817      -0.34112604
C       -2.80712118      -2.31341158      -1.14350898
N       -5.31744687      -2.25410218      -3.03178912
C       -6.64330030      -2.34581300      -3.34203437
O       -7.50757044      -1.59276240      -2.92326771
C       -9.50560222      -4.85372455      -6.53417781
C       -9.36443246      -6.03432819      -7.29084803
Br     -10.57289593      -6.56314774      -8.62179087
H       -5.80902191      -7.70832663     -12.00203283
H       -7.30847958      -8.60062020     -10.25833566
H       -5.24219755      -6.24144114      -7.29197028
H       -3.76022428      -5.34380273      -9.04303052
H       -8.91537395      -3.08257089      -4.46658517
H       -1.06823083      -2.08386581      -4.05088087
H        0.35731306      -0.64241910      -2.63712824
H       -2.27413937      -1.34430018       0.70422826
H       -3.65799944      -2.82356711      -0.69980755
H       -4.99481469      -1.51414495      -2.42815870
H      -10.29698017      -4.12020412      -6.60884304
Cl     -10.91563329       7.90055319       2.53375790
C      -10.06528604       7.71186112       4.01708447
C      -10.53750512       8.33507056       5.17049155
C       -9.84546885       8.18278274       6.37584428
C       -8.67884371       7.41075465       6.42973736
C       -8.22364889       6.77719756       5.26638016
C       -8.91137408       6.93283541       4.05964574
S       -7.83214821       7.21450603       7.98879175
C       -6.30134316       7.91532623       7.53027400
O       -5.31611500       7.15866344       6.96327598
C       -4.23198649       7.95604749       6.67618333
C       -3.03702805       7.50833970       6.04473630
C       -2.93389874       6.40396771       5.29336848
S       -4.12817558       5.23336978       4.87405850
C       -3.01561864       4.32708851       3.88167792
N       -3.37831253       3.24111929       3.29521157
C       -2.50134354       2.49182039       2.50343996
C       -2.89023287       2.17594079       1.19765935
C       -2.08587335       1.37294550       0.38467814
C       -0.88141853       0.88141853       0.88141853
C       -0.48469443       1.17322298       2.18509186
C       -1.30384805       1.96162082       2.99857287
N       -1.80645209       4.94254394       3.85434214
C       -1.64922332       6.05991272       4.62201164
O       -0.60460825       6.68000024       4.73899206
C       -4.53543962       9.23904147       7.11902349
C       -5.84523377       9.20606759       7.63830731
Br      -6.73039072      10.71296042       8.31448340
H      -11.44237039       8.93624992       5.14076106
H      -10.22660877       8.67023036       7.27059632
H       -7.33136780       6.15500131       5.28923987
H       -8.54345122       6.43990106       3.16370526
H       -2.16019399       8.14289161       6.16144441
H       -3.84249710       2.54106870       0.81941172
H       -2.41584791       1.12791759      -0.62153122
H        0.44502450       0.77559607       2.58363973
H       -1.01126613       2.14021369       4.02989428
H       -1.02749869       4.58725283       3.32236683
H       -3.88382344      10.09901347       7.04319042
Cl      10.66293469      -8.27484035       2.41216934
C        9.89075376      -7.98229921       3.92117866
C       10.38764044      -8.57528084       5.08014595
C        9.75907847      -8.33855511       6.30646229
C        8.63120192      -7.51211546       6.37601834
C        8.15130241      -6.91002643       5.20589777
C        8.77535137      -7.14995802       3.97854584
S        7.86647693      -7.20887436       7.96009470
C        6.28691455      -7.85807893       7.60194992
O        5.31086363      -7.08258234       7.04460845
C        4.18070950      -7.84114977       6.84235802
C        2.97881969      -7.36717740       6.24410695
C        2.88988566      -6.29330549       5.44804377
S        4.11390072      -5.19837026       4.92333288
C        2.99780477      -4.28639284       3.94018747
N        3.38052056      -3.24504712       3.28907571
C        2.50185819      -2.49174756       2.50299814
C        2.84383684      -2.25173482       1.16826134
C        2.03902124      -1.44911550       0.35536026
C        0.88141853      -0.88141853       0.88141853
C        0.53258167      -1.09713738       2.21329023
C        1.35282564      -1.88584660       3.02536951
N        1.76279269      -4.84624390       3.99430158
C        1.59207335      -5.92040695       4.81866737
O        0.52770771      -6.48610242       5.00979042
C        4.44753926      -9.11603980       7.32992551
C        5.77999353      -9.12050628       7.78910886
Br       6.62823707     -10.63532152       8.49427596
H       11.26290162      -9.21812823       5.03835151
H       10.15914876      -8.80322637       7.20506031
H        7.28920745      -6.24708470       5.23931683
H        8.38865781      -6.68047064       3.07792908
H        2.08124783      -7.95502939       6.42825279
H        3.76075600      -2.67649538       0.76572615
H        2.33285708      -1.26394485      -0.67456765
H       -0.35947742      -0.64008776       2.63360095
H        1.10037896      -2.00533165       4.07566348
H        0.97657763      -4.47924696       3.48129376
H        3.75598065      -9.94766230       7.32238438
