137
Properties=species:S:1:pos:R:3 pbc="F F F"
C        0.00000000       0.00000000       0.00000000
C        1.81608835       4.87437332      -4.54158353
N        2.56932729       4.11724748      -3.56320249
C        2.02951043       3.19993375      -2.65886321
C        0.83505707       2.59750964      -2.78207009
C        0.20531996       1.73303291      -1.81343002
H       -0.87888323       1.66665787      -1.87915717
C        0.86973659       0.86973659      -0.86973659
C        2.29409720       0.63779115      -0.81606346
C        3.24497428       1.55562090      -1.07901389
C        4.66743175       1.10910911      -0.90626505
O        4.94312410      -0.02238867      -0.50880653
C        5.74866919       2.07187267      -1.25975276
C        7.03194614       1.77385030      -1.00400233
C        8.14517268       2.69373154      -1.27996991
C        9.37807680       2.16830704      -1.68864039
C       10.46786810       3.01054791      -1.92845406
C       10.33882396       4.38728362      -1.75220861
C        9.12097774       4.91425359      -1.33025293
Br       8.94529744       6.77976424      -1.07525337
C        8.02997951       4.07816639      -1.08768200
C        2.89503086       2.95810675      -1.43750768
O        3.44266806       3.91577448      -0.88896026
H        2.50630221       5.45007742      -5.16560582
H        1.13665907       5.57465470      -4.04646935
H        1.24170414       4.21805789      -5.20191845
H        3.28765428       4.68279237      -3.09973216
H        0.22441157       2.80086002      -3.65780069
H        2.58796953      -0.36866393      -0.51752926
H        5.48005340       3.01462298      -1.71690859
H        7.30127625       0.81276537      -0.56861499
H        9.50022776       1.09594228      -1.82927114
H       11.41796558       2.59056094      -2.24957203
H       11.19039844       5.03608115      -1.93831983
H        7.09622692       4.50943737      -0.73412440
C       -5.58766131      -3.33803080      -2.30635309
N       -4.32106091      -3.00420395      -2.92451241
C       -3.30424553      -2.25208044      -2.33198143
C       -3.16200226      -2.03951486      -1.01311968
C       -2.18989605      -1.18012873      -0.38175810
H       -2.45992256      -0.81370546       0.60669621
C       -0.86973659      -0.86973659      -0.86973659
C       -0.25068955      -1.46813858      -2.02912369
C       -0.89235421      -1.82976228      -3.15749259
C       -0.03863764      -2.38336701      -4.26080125
O        1.18422474      -2.46411472      -4.14965199
C       -0.72011446      -2.86442298      -5.49575718
C       -0.00036525      -3.24786146      -6.56157206
C       -0.60405413      -3.68642843      -7.82839158
C        0.02864750      -4.69043537      -8.57323636
C       -0.49926778      -5.10955021      -9.79805209
C       -1.66085725      -4.52144858     -10.29601036
C       -2.28530696      -3.51159487      -9.56858243
Br      -3.85291986      -2.70029021     -10.24710499
C       -1.76195567      -3.08788121      -8.34599102
C       -2.35567501      -1.60962239      -3.32534788
O       -2.81308817      -1.08986652      -4.34444812
H       -6.15127717      -4.00245197      -2.96825631
H       -6.18358628      -2.43593626      -2.13826058
H       -5.44539451      -3.86047202      -1.35581394
H       -4.42466943      -2.73689742      -3.90861196
H       -3.86544023      -2.49590616      -0.32172589
H        0.82811392      -1.60764117      -1.95730762
H       -1.80115940      -2.89088640      -5.51953918
H        1.08795234      -3.24571528      -6.52489368
H        0.93807122      -5.16025359      -8.20325882
H       -0.00109720      -5.89282733     -10.36417402
H       -2.06472980      -4.85042669     -11.24964293
H       -2.25217946      -2.27991620      -7.80769302
C       -3.41468951       5.56216563       2.25519007
N       -3.49876543       4.15657622       2.59443562
C       -2.77039569       3.13186064       1.98605106
C       -1.63887987       3.29524822       1.28050871
C       -0.92691447       2.27411181       0.55075661
H       -0.29896208       2.63111948      -0.26314975
C       -0.86973659       0.86973659       0.86973659
C       -1.42893833       0.26372704       2.05528645
C       -2.56800757       0.64682347       2.66477804
C       -2.99156915      -0.16364244       3.85487920
O       -2.35044199      -1.14641868       4.22551866
C       -4.20501607       0.27425070       4.60102784
C       -4.70223093      -0.48333904       5.59090689
C       -5.92188114      -0.13942824       6.33642124
C       -6.00392010      -0.46549536       7.69659950
C       -7.16069675      -0.18291677       8.42909010
C       -8.25219589       0.42005942       7.80606089
C       -8.18323819       0.73157940       6.45066667
Br      -9.66687542       1.53592460       5.59751504
C       -7.03163267       0.45031544       5.71387979
C       -3.40033752       1.76010655       2.13020121
O       -4.61836979       1.63955407       1.98947895
H       -4.03385898       6.14083161       2.94729486
H       -3.78260756       5.73570099       1.23947456
H       -2.38942179       5.93464661       2.33761208
H       -4.46350624       3.85042189       2.75625068
H       -1.21627578       4.29102859       1.17576792
H       -0.86637091      -0.58157711       2.45204107
H       -4.67998625       1.20612815       4.32547057
H       -4.20615124      -1.40738080       5.88388617
H       -5.16374736      -0.93923320       8.20092703
H       -7.20990566      -0.43694585       9.48513874
H       -9.14903524       0.63506873       8.38069545
H       -7.00993834       0.67903587       4.65081447
C        3.04209356      -2.53105671       5.65889493
N        2.88129647      -3.05160401       4.31687679
C        2.16766062      -2.43231062       3.28833616
C        1.84273734      -1.12957449       3.24232496
C        1.01510700      -0.48545966       2.25121622
H        0.53326475       0.43662531       2.57029238
C        0.86973659      -0.86973659       0.86973659
C        1.62854889      -1.90749661       0.21190632
C        2.03926855      -3.05625159       0.78408894
C        2.76881909      -4.01980132      -0.10581450
O        2.94524276      -3.78513359      -1.30083438
C        3.30470659      -5.26760878       0.50797925
C        3.85020810      -6.22173682      -0.26214615
C        4.35383387      -7.49738916       0.26765112
C        5.47621369      -8.08730852      -0.32849797
C        5.96315189      -9.31574140       0.12797678
C        5.32616960      -9.97246409       1.17968250
C        4.20038679      -9.39953355       1.76556391
Br       3.32388980     -10.29380379       3.18262146
C        3.70870279      -8.17414679       1.31297831
C        1.70903160      -3.38242871       2.19918498
O        1.25147740      -4.48229540       2.51363001
H        3.71509595      -3.18330410       6.22358540
H        2.07934875      -2.50055187       6.17788250
H        3.48130910      -1.52918867       5.65118271
H        2.70165890      -4.06070640       4.30781351
H        2.16732036      -0.47162317       4.04412875
H        1.85439680      -1.72051570      -0.83807764
H        3.23861090      -5.39265175       1.58032232
H        3.93981346      -6.08108024      -1.33823708
H        5.98613019      -7.59204228      -1.15273127
H        6.83774048      -9.76068645      -0.34032838
H        5.70855850     -10.92799308       1.52824784
H        2.81300213      -7.75818780       1.76859875
