137
Properties=species:S:1:pos:R:3 pbc="F F F"
C        0.00000000       0.00000000       0.00000000
C        4.92169069       4.49473190      -1.88332102
N        3.79402197       3.90910157      -2.57635589
C        2.82496289       3.08719891      -1.99923241
C        2.96308407       2.37805628      -0.86726546
C        1.93583600       1.59504181      -0.22112140
H        2.05034578       1.46737460       0.85366639
C        0.86977881       0.86977881      -0.86977881
C        0.65952168       0.79122260      -2.29750154
C        0.95283865       1.76698685      -3.17633333
C        0.61211237       1.52401267      -4.61370005
O       -0.13823224       0.61728962      -4.96429637
C        1.26438370       2.42232512      -5.60628508
C        0.80445011       2.50143705      -6.86247848
C        1.41329846       3.43229232      -7.81894039
C        1.04084620       4.78463488      -7.75335349
C        1.60037248       5.72136528      -8.62506747
C        2.54114083       5.31841443      -9.56968197
C        2.92540876       3.97904216      -9.64239439
C        2.36578344       3.03821611      -8.77087277
Br       2.95454401       1.23751192      -8.92087804
C        1.51140604       3.07718773      -2.74778507
O        1.05466568       4.13689300      -3.17886760
H        5.56610882       5.00357517      -2.60699522
H        5.52457878       3.73433542      -1.37876393
H        4.57985342       5.23270567      -1.15149762
H        3.34979757       4.56981695      -3.22251044
H        3.90669397       2.41034353      -0.32945259
H        0.21377754      -0.13556380      -2.65881687
H        2.10449581       3.02779215      -5.28661629
H       -0.03563670       1.90852417      -7.21419098
H        0.30992941       5.11828816      -7.01814496
H        1.30069807       6.76501999      -8.56491291
H        2.97661339       6.04692513     -10.24931868
H        3.66382760       3.67753036     -10.38107552
C       -4.49539193      -1.88322840      -4.92112328
N       -3.90936607      -2.57638095      -3.79373241
C       -3.08737827      -1.99928943      -2.82472652
C       -2.37851157      -0.86713845      -2.96275579
C       -1.59541431      -0.22104744      -1.93553747
H       -1.46800546       0.85379292      -2.04984145
C       -0.86977881      -0.86977881      -0.86977881
C       -0.79086678      -2.29753008      -0.65984896
C       -1.76650381      -3.17651011      -0.95314490
C       -1.52314338      -4.61389799      -0.61278372
O       -0.61618118      -4.96446028       0.13728771
C       -2.42138189      -5.60653646      -1.26507554
C       -2.50012101      -6.86284690      -0.80539772
C       -3.43090076      -7.81937876      -1.41425165
C       -4.78317657      -7.75416659      -1.04149140
C       -5.71983914      -8.62596251      -1.60100357
C       -5.31688752      -9.57028507      -2.54206465
C       -3.97758301      -9.64262300      -2.92663930
C       -3.03682472      -8.77101857      -2.36702902
Br      -1.23621596      -8.92050470      -2.95621332
C       -3.07691909      -2.74812521      -1.51133455
O       -4.13643142      -3.17953718      -1.05445767
H       -5.00421799      -2.60687314      -5.56558808
H       -3.73523608      -1.37837515      -5.52406689
H       -5.23345037      -1.15163963      -4.57896672
H       -4.56984454      -3.22277552      -3.34950489
H       -2.41112067      -0.32912764      -3.90624178
H        0.13609490      -2.65874085      -0.21438467
H       -3.02710087      -5.28681675      -2.10498663
H       -1.90694923      -7.21461305       0.03448383
H       -5.11683073      -7.01918937      -0.31034243
H       -6.76344176      -8.56609981      -1.30108940
H       -6.04534517     -10.24998544      -2.97752660
H       -3.67607120     -10.38107819      -3.66528410
C       -2.41172567       3.29125140       5.59676653
N       -2.95483572       3.04708588       4.27755783
C       -2.36319066       2.25825720       3.28994635
C       -1.06251355       1.93336437       3.21252788
C       -0.46116908       1.04831554       2.24251459
H        0.45050886       0.54915365       2.56540920
C       -0.86977881       0.86977881       0.86977881
C       -1.95527629       1.57066580       0.22230373
C       -3.08190004       1.98206560       0.83219318
C       -4.12142848       2.64519741      -0.01680080
O       -4.09934173       2.58728749      -1.24327547
C       -5.17029896       3.41531559       0.70737934
C       -6.30157162       3.77894371       0.08785030
C       -7.35670458       4.48506841       0.82275818
C       -8.21738283       3.72777390       1.63367784
C       -9.22898297       4.34590325       2.37191900
C       -9.38985134       5.72799194       2.31139395
C       -8.53817081       6.49399265       1.51468185
C       -7.52436033       5.87723996       0.77327203
Br      -6.39464091       6.99120296      -0.27290991
C       -3.34367824       1.71999716       2.27270344
O       -4.43106408       1.28492332       2.65443888
H       -3.03615158       4.02613996       6.11438766
H       -1.39625954       3.69448787       5.54693071
H       -2.40867577       2.36938989       6.18599106
H       -3.96576966       2.87698936       4.29936594
H       -0.37272704       2.31178277       3.96198028
H       -1.82994673       1.75224897      -0.84516509
H       -5.01057815       3.65648934       1.75183676
H       -6.49244529       3.55235310      -0.95771995
H       -8.10342049       2.64649326       1.69644879
H       -9.89010168       3.74680500       2.99372429
H      -10.17774301       6.20994399       2.88517020
H       -8.67098968       7.57237677       1.47906703
C        5.55266511      -3.43300626       2.31407224
N        4.15113738      -3.45343815       2.67490391
C        3.13422590      -2.75878826       2.01838006
C        3.29249882      -1.67631439       1.23959259
C        2.25556249      -1.00637577       0.49006095
H        2.58971376      -0.47103169      -0.39669146
C        0.86977881      -0.86977881       0.86977881
C        0.28349612      -1.37397558       2.09077413
C        0.67383148      -2.49108639       2.73124096
C       -0.09155505      -2.88547942       3.95590072
O       -1.18384339      -2.39625541       4.23094173
C        0.56224513      -3.88181935       4.84892941
C       -0.14556756      -4.52921694       5.78471625
C        0.49059057      -5.55275219       6.62118841
C        0.66696102      -6.83508433       6.07678922
C        1.28307277      -7.84577330       6.81795916
C        1.73339619      -7.58584570       8.10999535
C        1.57047605      -6.31465377       8.66171549
C        0.95273406      -5.30039651       7.92174174
Br       0.78470633      -3.59171526       8.73651238
C        1.76169996      -3.36251171       2.21216718
O        1.62750801      -4.58577929       2.15713898
H        6.12718439      -3.98500754       3.06448728
H        5.94564377      -2.41290758       2.27912677
H        5.70509817      -3.91512021       1.34383834
H        3.82713806      -4.39486780       2.92011911
H        4.28763188      -1.26504335       1.09381486
H       -0.54637807      -0.79186017       2.49154851
H        1.61710173      -4.08956711       4.71223540
H       -1.20412331      -4.34436553       5.94683622
H        0.32492450      -7.05497319       5.06646485
H        1.41070494      -8.83509187       6.38483416
H        2.21240495      -8.37240815       8.68804411
H        1.93003255      -6.12284178       9.66955915
