166
Properties=species:S:1:pos:R:3 pbc="F F F"
C        4.72597551       6.28963527      -2.99100188
N        4.62304591       4.91553310      -3.43629829
C        3.82235323       3.93320281      -2.85231992
C        2.78353113       4.14545594      -2.02648098
C        2.01581652       3.13347611      -1.33703427
H        1.49317502       3.46952132      -0.44399461
C        1.77883472       1.77883472      -1.77883472
C        2.11790191       1.27207672      -3.08910511
C        3.22601306       1.61063034      -3.77490939
C        3.38713477       1.03985913      -5.15084903
O        2.65148856       0.15172459      -5.57563885
C        4.42314240       1.66528080      -6.01732659
C        4.40244098       1.49389829      -7.34874540
C        5.36134662       2.14431076      -8.25489885
C        5.89686015       3.41483882      -7.99160666
C        6.79116043       4.01541178      -8.88296252
C        7.14116184       3.35286718     -10.05655078
C        6.60175755       2.10332703     -10.34738973
C        5.71064383       1.50390253      -9.45067643
C        4.24593390       2.51903130      -3.18720005
O        5.44030039       2.22143089      -3.17581504
H        5.37233693       6.84566904      -3.67708138
H        5.16556310       6.33852890      -1.99059882
H        3.74860619       6.78133063      -2.98336381
H        5.53247867       4.51629225      -3.69031198
H        2.49710227       5.16633420      -1.78504565
H        1.39805107       0.58454530      -3.53263635
H        5.17894995       2.28329014      -5.55453387
H        3.65272630       0.85571316      -7.81108778
H        5.62148374       3.96407210      -7.09383376
H        7.19984988       4.99565626      -8.65360352
H        6.86525884       1.58618968     -11.26547279
H        5.29870228       0.52598102      -9.69288599
C        8.06157803       3.97027592     -10.97592040
C        8.83242658       4.48735574     -11.74589245
Br      10.07882350       5.32343008     -12.99087214
C       -4.30936242      -3.22820650      -6.46904374
N       -3.89473644      -3.85097170      -5.22916916
C       -3.15388619      -3.23292118      -4.22106859
C       -2.98948473      -1.90921835      -4.05676497
C       -2.14145022      -1.26550293      -3.07937376
H       -1.82931120      -0.25261067      -3.32476908
C       -1.77883472      -1.77883472      -1.77883472
C       -2.36793244      -2.94674665      -1.16440464
C       -2.71844322      -4.06390153      -1.82920804
C       -3.37835803      -5.15584619      -1.04363871
O       -3.43104639      -5.13178646       0.18398085
C       -4.05223899      -6.22850575      -1.82500505
C       -4.96549315      -7.02816360      -1.25142792
C       -5.70860530      -8.05718216      -1.99476877
C       -6.06091022      -7.89820241      -3.34419300
C       -6.78541190      -8.88623553      -4.01788730
C       -7.17897714     -10.03502010      -3.33658256
C       -6.86068900     -10.19996340      -1.99182190
C       -6.13176626      -9.21090436      -1.32255218
C       -2.46208278      -4.20286119      -3.28722129
O       -1.89573651      -5.19396315      -3.74784665
H       -4.93414990      -3.92656942      -7.03436802
H       -3.43984681      -2.97316006      -7.08168396
H       -4.90160645      -2.32688664      -6.28480755
H       -3.56315218      -4.81157616      -5.36435455
H       -3.48284117      -1.22380111      -4.74183984
H       -2.54407511      -2.88013119      -0.09102643
H       -3.81022337      -6.33383792      -2.87271268
H       -5.19367919      -6.93372423      -0.19212382
H       -5.78650894      -6.99987431      -3.89300636
H       -7.03889701      -8.74524434      -5.06496831
H       -7.17257935     -11.09049546      -1.45384649
H       -5.89035619      -9.35601938      -0.27119372
C       -7.92573179     -11.05326639      -4.02877616
C       -8.55113882     -11.90604766      -4.60848830
Br      -9.56236908     -13.28492284      -5.54583380
C       -4.39949340       3.17007621       6.43704306
N       -3.93338451       3.81457522       5.22691756
C       -3.18168096       3.20372648       4.22246852
C       -3.04893119       1.88090995       4.02562691
C       -2.19168813       1.24056929       3.05406949
H       -1.91432790       0.21299369       3.27936936
C       -1.77883472       1.77883472       1.77883472
C       -2.31835160       2.97915913       1.18157300
C       -2.65675418       4.08714595       1.86765266
C       -3.26430442       5.21822106       1.09531745
O       -3.28315382       5.22917260      -0.13347442
C       -3.93031549       6.28764048       1.88779383
C       -4.80494020       7.12797595       1.31216852
C       -5.54025352       8.15676903       2.06353369
C       -5.93450248       7.97095997       3.39784318
C       -6.65038375       8.96017805       4.07897293
C       -6.99316330      10.13772748       3.41968902
C       -6.63287312      10.33032294       2.08927824
C       -5.91272636       9.33983485       1.41266158
C       -2.43771852       4.17900004       3.33544669
O       -1.85767773       5.14087139       3.83899719
H       -5.02060332       3.87000606       7.00447796
H       -3.55480217       2.87409571       7.06579293
H       -5.01071840       2.29109956       6.21148268
H       -3.57962423       4.76144601       5.39801266
H       -3.57984909       1.19116269       4.67747033
H       -2.46605148       2.94684176       0.10233949
H       -3.71501571       6.35749683       2.94426143
H       -5.00579815       7.06893247       0.24479662
H       -5.70023944       7.05063653       3.92851364
H       -6.93691179       8.79782417       5.11437370
H       -6.90511351      11.24361264       1.56819516
H       -5.63803147       9.50676508       0.37277273
C       -7.73097488      11.15725510       4.11954437
C       -8.34889207      12.01110949       4.70567322
Br      -9.34801191      13.39171981       5.65339400
C        4.68799938      -6.30928144       3.00933184
N        4.60596180      -4.92907431       3.43984119
C        3.80985617      -3.94428823       2.85373156
C        2.75918339      -4.15393845       2.04234621
C        1.99516990      -3.14109536       1.35006164
H        1.45841491      -3.48126528       0.46701077
C        1.77883472      -1.77883472       1.77883472
C        2.13882284      -1.26107528       3.07918561
C        3.25085163      -1.60456332       3.75613784
C        3.43441051      -1.01998789       5.12344453
O        2.71394183      -0.11859467       5.54631550
C        4.47315409      -1.64740389       5.98519181
C        4.46982835      -1.46056902       7.31468730
C        5.43165345      -2.11162600       8.21727678
C        5.94950964      -3.39119743       7.96259856
C        6.84713696      -3.99184299       8.85055477
C        7.21825836      -3.32000822      10.01231322
C        6.69659062      -2.06106166      10.29482201
C        5.80207429      -1.46166260       9.40148590
C        4.25343951      -2.53137517       3.16735057
O        5.45092142      -2.24776983       3.13885506
H        5.33585417      -6.86487269       3.69436049
H        5.11538910      -6.37470465       2.00459707
H        3.70504466      -6.78968554       3.01857044
H        5.52278292      -4.53750679       3.67879318
H        2.45831582      -5.17412866       1.81603763
H        1.43206888      -0.56022700       3.52293685
H        5.21643258      -2.27937594       5.52096545
H        3.73286759      -0.80849953       7.77816012
H        5.65749268      -3.94744356       7.07445337
H        7.24190039      -4.97931295       8.62789633
H        6.97660188      -1.53653735      11.20378209
H        5.40418136      -0.47633061       9.63705731
C        8.14212975      -3.93746908      10.92817552
C        8.91587204      -4.45459255      11.69521019
Br      10.16694787      -5.29073746      12.93544038
C       -0.00445707       0.01189536      -1.78238275
H       -0.66409135       0.67374010      -2.43557963
H        0.65740317      -0.63156657      -2.45157240
C       -0.90989263      -0.90692880      -0.91072765
C        0.90977584       0.90977584      -0.90977584
C       -0.00465871       1.77757030       0.00794375
H       -0.66225468       2.44313916      -0.64384735
H        0.64322798       2.43503045       0.67728295
C       -1.78241447       0.00034974      -0.00472694
H       -2.45427497      -0.65498947       0.64260836
H       -2.43311707       0.67328779      -0.65473579
C       -0.91132561       0.90220522       0.91563759
C       -0.01476271      -0.02253852       1.78660255
H       -0.67934791      -0.69751639       2.42135241
H        0.63392994       0.61504881       2.47327442
C        0.01484550      -1.77751727      -0.01636693
H        0.67870853      -2.42144646      -0.68295456
H       -0.62264859      -2.45592969       0.64226336
C        1.78714474       0.01002794       0.00389507
H        2.44202412       0.67113390       0.66197326
H        2.45385902      -0.65136977      -0.64189061
C        0.91606151      -0.90478549       0.90901405
