145
Properties=species:S:1:pos:R:3 pbc="F F F"
C        0.00000000       0.00000000       0.00000000
C        3.81607149       5.37973125      -2.08109785
N        3.71314188       4.00562907      -2.52639427
C        2.91244921       3.02329879      -1.94241589
C        1.87362710       3.23555192      -1.11657695
C        1.10591250       2.22357209      -0.42713024
H        0.58327100       2.55961729       0.46590941
C        0.86893069       0.86893069      -0.86893069
C        1.20799788       0.36217269      -2.17920108
C        2.31610903       0.70072632      -2.86500536
C        2.47723075       0.12995511      -4.24094500
O        1.74158454      -0.75817944      -4.66573483
C        3.51323838       0.75537678      -5.10742256
C        3.49253695       0.58399427      -6.43884138
C        4.45144260       1.23440674      -7.34499483
C        4.98695612       2.50493480      -7.08170264
C        5.88125640       3.10550776      -7.97305849
C        6.23125782       2.44296315      -9.14664676
C        5.69185352       1.19342300      -9.43748570
C        4.80073981       0.59399851      -8.54077241
C        3.33602988       1.60912727      -2.27729603
O        4.53039636       1.31152686      -2.26591101
H        4.46243290       5.93576502      -2.76717735
H        4.25565908       5.42862488      -1.08069479
H        2.83870217       5.87142661      -2.07345979
H        4.62257464       3.60638822      -2.78040796
H        1.58719824       4.25643018      -0.87514162
H        0.48814705      -0.32535872      -2.62273233
H        4.26904593       1.37338612      -4.64462985
H        2.74282228      -0.05419087      -6.90118375
H        4.71157972       3.05416808      -6.18392974
H        6.28994586       4.08575224      -7.74369950
H        5.95535482       0.67628566     -10.35556876
H        4.38879825      -0.38392301      -8.78298197
C        7.15167400       3.06037190     -10.06601637
C        7.92252256       3.57745172     -10.83598843
Br       9.16891948       4.41352606     -12.08096811
C       -3.36510981      -2.34147638      -5.57031440
N       -2.97027225      -2.95531608      -4.31957689
C       -2.23355519      -2.33439914      -3.31020956
C       -2.05677853      -1.01082806      -3.15814938
C       -1.21229103      -0.36570887      -2.17861493
H       -0.88678414       0.64115337      -2.43134810
C       -0.86893069      -0.86893069      -0.86893069
C       -1.47691710      -2.02393115      -0.24852341
C       -1.83229163      -3.14435430      -0.90519479
C       -2.51208370      -4.22082143      -0.11522573
O       -2.57747428      -4.18310459       1.11143895
C       -3.18908598      -5.29458331      -0.89236843
C       -4.11683017      -6.07838381      -0.32015861
C       -4.86299161      -7.10737259      -1.06047997
C       -5.19930853      -6.95909353      -2.41519149
C       -5.92715967      -7.94655463      -3.08610835
C       -6.34013775      -9.08378111      -2.39694886
C       -6.03784818      -9.23771356      -1.04720049
C       -5.30551879      -8.24932057      -0.38067136
C       -1.56204514      -3.30156828      -2.35883976
O       -1.00147686      -4.30345635      -2.80290103
H       -3.99131062      -3.03919631      -6.13486835
H       -2.48649977      -2.10218091      -6.17629806
H       -3.94961228      -1.43203691      -5.40193938
H       -2.64755098      -3.92075708      -4.44106277
H       -2.53552822      -0.32759008      -3.85565175
H       -1.66366489      -1.94400591       0.82215015
H       -2.93715703      -5.41364257      -1.93626229
H       -4.35516983      -5.97023840       0.73559306
H       -4.90955355      -6.06962261      -2.97050138
H       -6.16805300      -7.81407861      -4.13726598
H       -6.36489033     -10.11910908      -0.50320982
H       -5.07678833      -8.38574679       0.67467790
C       -7.09036648     -10.10141442      -3.08628137
C       -7.71868304     -10.95368232      -3.66359735
Br      -8.73461777     -12.33172742      -4.59706846
C       -3.45632756       2.28117683       5.53939620
N       -3.00914397       2.91793718       4.31808408
C       -2.26144700       2.30448415       3.31223274
C       -2.11715375       0.98113460       3.12746762
C       -1.26329249       0.33960013       2.15372222
H       -0.97314745      -0.68274721       2.38657864
C       -0.86893069       0.86893069       0.86893069
C       -1.42674762       2.05753892       0.26508512
C       -1.76950922       3.16900808       0.94332341
C       -2.39641853       4.28589038       0.16582195
O       -2.42784076       4.28405933      -1.06276016
C       -3.06528032       5.35656364       0.95419376
C       -3.95426234       6.18204332       0.37906694
C       -4.69241987       7.21097037       1.12745392
C       -5.07119130       7.03485351       2.46754875
C       -5.79022564       8.02368712       3.14590989
C       -6.15172138       9.19088258       2.47826377
C       -5.80693520       9.37348066       1.14234637
C       -5.08357702       8.38346668       0.46846702
C       -1.53655090       3.27811323       2.40778904
O       -0.96131871       4.25092689       2.89558864
H       -4.07878947       2.98054853       6.10603728
H       -2.60231462       2.00023629       6.16242784
H       -4.06077065       1.39378129       5.32903662
H       -2.66338688       3.87005049       4.47593345
H       -2.63433819       0.29275322       3.79167863
H       -1.58504676       2.01266901      -0.81219512
H       -2.84000382       5.43942098       2.00763709
H       -4.16531989       6.11003248      -0.68553720
H       -4.82214077       6.12243894       3.00509783
H       -6.06455924       7.86905289       4.18578546
H       -6.09378982      10.27857529       0.61484413
H       -4.82116776       8.54251079      -0.57582132
C       -6.89280439      10.20999203       3.17526585
C       -7.51346142      11.06349619       3.75900510
Br      -8.51701133      12.44354022       4.70286209
C        3.71738846      -5.42942109       2.13009104
N        3.66852312      -4.04031252       2.53632958
C        2.87975411      -3.05176328       1.94664650
C        1.81055478      -3.25662620       1.15857500
C        1.05240748      -2.24256012       0.46164724
H        0.49324311      -2.58874423      -0.40500847
C        0.86893069      -0.86893069       0.86893069
C        1.26237058      -0.33433096       2.15267012
C        2.38032925      -0.68600798       2.81550348
C        2.59986014      -0.08011968       4.16815104
O        1.90391198       0.84204873       4.58727668
C        3.64281431      -0.71090047       5.02232293
C        3.66757346      -0.49983815       6.34796099
C        4.63396249      -1.15207981       7.24480186
C        5.12359683      -2.44547227       7.00452445
C        6.02645687      -3.04639458       7.88697120
C        6.43126154      -2.36050404       9.02910214
C        5.93795768      -1.08715154       9.29765301
C        5.03808498      -0.48763110       8.40979464
C        3.35475807      -1.64184696       2.22584815
O        4.55647427      -1.38108525       2.17027472
H        4.36761472      -5.98436609       2.81339446
H        4.12479080      -5.52106607       1.11912188
H        2.72618289      -5.89124809       2.16615758
H        4.59660555      -3.66154137       2.75122390
H        1.48699604      -4.27501059       0.95676341
H        0.57686533       0.38748632       2.59614165
H        4.36570688      -1.36491596       4.55643906
H        2.95134876       0.17413697       6.81260337
H        4.80505531      -3.01229529       6.13232694
H        6.39895778      -4.04491597       7.67552384
H        6.24430583      -0.55143741      10.19146600
H        4.66265637       0.50904646       8.63424731
C        7.36056833      -2.97821455       9.93927938
C        8.13886277      -3.49554711      10.70155282
Br       9.39729906      -4.33203009      11.93408450
