149
Properties=species:S:1:pos:R:3 pbc="F F F"
C        0.00000000       0.00000000       0.00000000
C        0.80746297       4.36794091      -5.68528046
C        1.85484188       4.77680934      -4.66381862
N        2.51156655       3.60932808      -4.09806965
C        1.96640462       2.71184628      -3.17877685
C        0.88510528       2.93270327      -2.41174518
C        0.23676702       1.97020045      -1.55225570
H       -0.81498728       2.15643777      -1.34499137
C        0.86880422       0.86880422      -0.86880422
C        2.29484019       0.64583037      -0.81055191
C        3.15352155       0.87264401      -1.82413045
C        4.59546404       0.56306142      -1.55737429
O        4.99908382       0.34050923      -0.41649648
C        5.53822501       0.53634142      -2.71033714
C        6.84607737       0.30281745      -2.51411946
C        7.81886898       0.22001972      -3.61346930
C        7.50628494      -0.39562501      -4.83496893
C        8.45786994      -0.48569276      -5.85372603
C        9.73823063       0.02797984      -5.65809183
C       10.06079304       0.62409151      -4.44086264
Br      11.80119570       1.31133183      -4.17082342
C        9.11370764       0.71691900      -3.41874901
C        2.66159257       1.36523978      -3.14035349
O        2.94409695       0.79828785      -4.19502596
H        0.36612819       5.25344508      -6.15167139
H        0.00071343       3.79228447      -5.22101693
H        1.24849706       3.74864816      -6.47304655
H        1.41105788       5.39820621      -3.87875495
H        2.61591156       5.39130820      -5.15756347
H        3.09713956       3.11430243      -4.77735147
H        0.38122141       3.89390107      -2.46328378
H        2.66769853       0.25636191       0.13681575
H        5.15599183       0.69068259      -3.70793908
H        7.24203081       0.16897711      -1.50907398
H        6.52104252      -0.82375064      -5.00636773
H        8.19990967      -0.96307176      -6.79618129
H       10.47457892      -0.04687297      -6.45414860
H        9.38230850       1.18369633      -2.47375713
C       -6.49112168      -1.75343547      -2.61612719
C       -5.46932541      -2.16338893      -3.66275549
N       -4.33655426      -2.83557851      -3.04683151
C       -3.32441505      -2.23933154      -2.29328116
C       -3.02955441      -0.92825682      -2.27174251
C       -2.07248691      -0.28234024      -1.40439602
H       -2.24823590       0.77408708      -1.21229305
C       -0.86880422      -0.86880422      -0.86880422
C       -0.34377506      -2.16026097      -1.24718643
C       -1.09111777      -3.25086143      -1.50831681
C       -0.34452089      -4.49809441      -1.87328445
O        0.85516921      -4.46635531      -2.14490343
C       -1.09231089      -5.78593440      -1.90665828
C       -0.47387009      -6.92228901      -2.26685518
C       -1.14441379      -8.23072809      -2.27721611
C       -2.06195815      -8.60124873      -1.28242198
C       -2.66453928      -9.86143995      -1.29992398
C       -2.34677458     -10.77135794      -2.30616978
C       -1.42262881     -10.41657731      -3.28654107
Br      -0.98276482     -11.65480433      -4.64578181
C       -0.81695815      -9.15827958      -3.27413792
C       -2.57470229      -3.20046250      -1.39202105
O       -3.20336711      -4.01566789      -0.71837577
H       -7.36769634      -1.30812218      -3.09542614
H       -6.07603517      -1.01822704      -1.91975261
H       -6.82164100      -2.61765354      -2.03089723
H       -5.14275174      -1.29724143      -4.24802587
H       -5.93792940      -2.85945589      -4.36739794
H       -4.58119897      -3.75070792      -2.65688658
H       -3.58797164      -0.24491609      -2.90551853
H        0.74282278      -2.22251683      -1.30755065
H       -2.13350749      -5.79883519      -1.62227082
H        0.56955837      -6.91298005      -2.57666023
H       -2.31194847      -7.91813745      -0.47357368
H       -3.37609436     -10.13320327      -0.52372157
H       -2.81783552     -11.75093535      -2.31308367
H       -0.09613591      -8.89775143      -4.04587461
C       -5.32554765       0.72147557       4.81366111
C       -4.37908254       1.89055539       5.02583191
N       -3.98643222       2.47770484       3.75482722
C       -3.10178297       1.93139062       2.82385416
C       -2.21609261       0.94945267       3.06400846
C       -1.38641958       0.28918708       2.08361651
H       -1.06155190      -0.71667303       2.34156299
C       -0.86880422       0.86880422       0.86880422
C       -0.97035602       2.26569971       0.51516673
C       -2.03881424       3.04880639       0.76267539
C       -1.94295708       4.47155760       0.30138507
O       -0.87137375       4.95141534      -0.06669956
C       -3.18036348       5.30080752       0.30373256
C       -3.13454362       6.59180517      -0.06333452
C       -4.32673558       7.45011027      -0.12448786
C       -5.56173910       6.97134901      -0.58745926
C       -6.67261933       7.81509602      -0.66181214
C       -6.55818484       9.15185699      -0.28573953
C       -5.33012855       9.63821885       0.15739978
Br      -5.17147963      11.45457735       0.65729397
C       -4.21611563       8.79950056       0.23375946
C       -3.25153235       2.49221470       1.42343880
O       -4.37503108       2.62292665       0.93945304
H       -5.66587207       0.32909469       5.77627790
H       -4.83770830      -0.09315943       4.26946595
H       -6.20464426       1.02796319       4.23758431
H       -3.50220844       1.58130722       5.60450338
H       -4.88822030       2.66108587       5.61547706
H       -4.76107057       2.94926956       3.27845334
H       -2.13235376       0.53939790       4.06665460
H       -0.10243213       2.68152051       0.00329205
H       -4.11809148       4.84823086       0.58829116
H       -2.18895441       7.06064884      -0.32952135
H       -5.67339535       5.93763738      -0.90737313
H       -7.62406369       7.42883589      -1.01988039
H       -7.42591878       9.80356659      -0.34763082
H       -3.26414104       9.19549692       0.58012400
C        4.12208415      -5.85499659       0.88360360
C        4.63306006      -4.80606969       1.85634008
N        3.52951348      -4.15019084       2.53925995
C        2.65108612      -3.21383410       1.99210753
C        2.85343428      -2.51252810       0.86359136
C        1.90197226      -1.63751799       0.21973293
H        2.04409840      -1.49138305      -0.84903959
C        0.86880422      -0.86880422       0.86880422
C        0.72205002      -0.73002148       2.29915096
C        0.94290960      -1.71094209       3.19644431
C        0.72070515      -1.35897783       4.63621677
O        0.57475342      -0.18996072       4.99137539
C        0.68618389      -2.46190162       5.63681806
C        0.52957294      -2.19070009       6.94274125
C        0.44325218      -3.23582097       7.97328485
C       -0.24617532      -4.43802536       7.75377882
C       -0.33691537      -5.40341305       8.75940553
C        0.25037891      -5.17229228      10.00163110
C        0.92062409      -3.97286523      10.23225786
Br       1.70816602      -3.65403738      11.92114755
C        1.01450992      -3.00405169       9.23081402
C        1.34520320      -3.07295136       2.74903128
O        0.74284710      -4.08231697       3.11224670
H        4.96018367      -6.38689747       0.42416352
H        3.52921239      -5.40168409       0.08311834
H        3.48858254      -6.58774401       1.39386521
H        5.26838880      -4.07625905       1.34337118
H        5.26091210      -5.29299351       2.61087763
H        3.03262308      -4.77404808       3.18212231
H        3.78400091      -2.63751382       0.31689153
H        0.39862404       0.25299751       2.64161817
H        0.77214797      -3.48347632       5.29898921
H        0.46512111      -1.16208082       7.29287997
H       -0.73188479      -4.63500138       6.80054301
H       -0.87207324      -6.33167516       8.57341728
H        0.17464312      -5.92676850      10.78044292
H        1.53975921      -2.07220080       9.42780194
