157
Properties=species:S:1:pos:R:3 pbc="F F F"
C        0.00000000       0.00000000       0.00000000
C        0.80746297       4.36794091      -5.68528046
C        1.85484188       4.77680934      -4.66381862
N        2.51156655       3.60932808      -4.09806965
C        1.96640462       2.71184628      -3.17877685
C        0.88510528       2.93270327      -2.41174518
C        0.23676702       1.97020045      -1.55225570
H       -0.81498728       2.15643777      -1.34499137
C        0.86880422       0.86880422      -0.86880422
C        2.29484019       0.64583037      -0.81055191
C        3.15352155       0.87264401      -1.82413045
C        4.59546404       0.56306142      -1.55737429
O        4.99908382       0.34050923      -0.41649648
C        5.53822501       0.53634142      -2.71033714
C        6.84607737       0.30281745      -2.51411946
C        7.81886898       0.22001972      -3.61346930
C        7.50628494      -0.39562501      -4.83496893
C        8.45786994      -0.48569276      -5.85372603
C        9.73823063       0.02797984      -5.65809183
C       10.06079304       0.62409151      -4.44086264
C        9.11370764       0.71691900      -3.41874901
C        2.66159257       1.36523978      -3.14035349
O        2.94409695       0.79828785      -4.19502596
H        0.36612819       5.25344508      -6.15167139
H        0.00071343       3.79228447      -5.22101693
H        1.24849706       3.74864816      -6.47304655
H        1.41105788       5.39820621      -3.87875495
H        2.61591156       5.39130820      -5.15756347
H        3.09713956       3.11430243      -4.77735147
H        0.38122141       3.89390107      -2.46328378
H        2.66769853       0.25636191       0.13681575
H        5.15599183       0.69068259      -3.70793908
H        7.24203081       0.16897711      -1.50907398
H        6.52104252      -0.82375064      -5.00636773
H        8.19990967      -0.96307176      -6.79618129
H       10.47457892      -0.04687297      -6.45414860
H        9.38230850       1.18369633      -2.47375713
C       11.38642045       1.14754773      -4.23517955
C       12.49663342       1.58594232      -4.06291997
Br      14.29175388       2.29478929      -3.78439078
C       -0.70686454      -5.03429295      -5.11952685
C       -1.92887177      -5.14287707      -4.22372101
N       -2.46972082      -3.82727965      -3.92196381
C       -1.92027944      -2.88029390      -3.05645441
C       -0.99491548      -3.12234339      -2.11229488
C       -0.32670203      -2.13423861      -1.29828253
H        0.64836260      -2.42324462      -0.91155984
C       -0.86880422      -0.86880422      -0.86880422
C       -2.23982263      -0.45452505      -1.05687479
C       -2.98252634      -0.71759480      -2.15017487
C       -4.38335864      -0.18480849      -2.14773262
O       -4.89471462       0.25889223      -1.12026714
C       -5.15177471      -0.20955939      -3.42356947
C       -6.42349938       0.22044604      -3.45996094
C       -7.21987792       0.26269160      -4.69517168
C       -6.66023703       0.63993387      -5.92532570
C       -7.44530662       0.69872297      -7.07931956
C       -8.80314613       0.39298004      -7.01413620
C       -9.36904586       0.03553697      -5.79223830
C       -8.58924268      -0.02485770      -4.63527527
C       -2.40254141      -1.46399460      -3.30064983
O       -2.45517879      -1.03116327      -4.45106870
H       -0.34737849      -6.03033927      -5.39352690
H        0.10980958      -4.50580603      -4.61801837
H       -0.94189563      -4.48898278      -6.03931335
H       -1.69111066      -5.69101847      -3.30588990
H       -2.70280641      -5.71987303      -4.74210380
H       -2.87940207      -3.36833956      -4.74105184
H       -0.64000992      -4.13794300      -1.96045333
H       -2.67039323       0.11937797      -0.23622944
H       -4.66983336      -0.56193477      -4.32284537
H       -6.92296291       0.55566220      -2.55278120
H       -5.60766528       0.90423324      -6.00022757
H       -6.99670877       0.98991201      -8.02622243
H       -9.40884825       0.44235422      -7.91536051
H       -9.04699303      -0.30388049      -3.68888843
C      -10.77403381      -0.27233382      -5.72278011
C      -11.95071122      -0.53017561      -5.66460887
Br     -13.85329906      -0.94708398      -5.57055091
C       -6.36574784       1.40238085       3.09255565
C       -5.29862812       2.01023193       3.98660979
N       -4.30258861       2.71800946       3.19836621
C       -3.30901924       2.14423404       2.40377447
C       -2.88484986       0.87085523       2.47384864
C       -1.95129524       0.23113733       1.57679060
H       -2.03509568      -0.85112119       1.50246737
C       -0.86880422       0.86880422       0.86880422
C       -0.44584075       2.23528619       1.07009553
C       -1.27338577       3.27285662       1.30405361
C       -0.62769638       4.61471139       1.47349198
O        0.58893635       4.72230843       1.62271745
C       -1.49698235       5.82428991       1.46363130
C       -0.96732043       7.04395670       1.65173714
C       -1.76434132       8.27874550       1.60927117
C       -2.80324807       8.45886285       0.68351793
C       -3.52735915       9.65289848       0.64564558
C       -3.21242130      10.68651101       1.52536999
C       -2.16992405      10.52111950       2.43470364
C       -1.44247394       9.32976735       2.47713435
C       -2.74838785       3.07347396       1.34532403
O       -3.51689647       3.75365909       0.66685521
H       -7.14392434       0.92908544       3.69823488
H       -5.94399417       0.64146130       2.42855936
H       -6.83578245       2.16780079       2.46660854
H       -4.83230023       1.24253930       4.61317950
H       -5.76861562       2.72826823       4.66789938
H       -4.67467139       3.56179476       2.75232731
H       -3.30924056       0.20711801       3.22204769
H        0.62957767       2.40387860       1.01294377
H       -2.55589640       5.71142539       1.28729170
H        0.09579354       7.16318596       1.85268949
H       -3.05596015       7.67636401      -0.02866455
H       -4.33187681       9.77666840      -0.07552602
H       -3.77854539      11.61373291       1.48957625
H       -0.63034140       9.21752744       3.19189312
C       -1.83858467      11.59220121       3.33836186
C       -1.56108794      12.48923214       4.09517563
Br      -1.11239919      13.93965529       5.31887947
C        4.80871421      -5.32993976       0.72203036
C        5.02315702      -4.38244881       1.88986402
N        3.75320622      -3.98780287       2.47795519
C        2.82259679      -3.10274066       1.93169031
C        3.06264636      -2.21836343       0.94854394
C        2.08243664      -1.38834659       0.28843995
H        2.33965065      -1.06483620      -0.71804499
C        0.86880422      -0.86880422       0.86880422
C        0.51655922      -0.96847641       2.26618683
C        0.76376219      -2.03635875       3.05017508
C        0.30410417      -1.93847877       4.47331681
O       -0.06231410      -0.86598604       4.95241759
C        0.30601449      -3.17499612       5.30389296
C       -0.05961569      -3.12739606       6.59523390
C       -0.12112638      -4.31859959       7.45488478
C       -0.58593741      -5.55361810       6.97794816
C       -0.66057598      -6.66351145       7.82296775
C       -0.28294450      -6.54804628       9.15920052
C        0.16203518      -5.31994553       9.64376648
C        0.23868931      -4.20691626       8.80377008
C        1.42262495      -3.25038297       2.49417792
O        0.93757421      -4.37322002       2.62661655
H        5.77054292      -5.67171941       0.32898233
H        4.26416795      -4.84239065      -0.09254377
H        4.23202377      -6.20808732       1.03008068
H        5.60243677      -3.50652951       1.57905276
H        5.61308297      -4.89139249       2.66030777
H        3.27650810      -4.76142222       2.95086315
H        4.06494059      -2.13614228       0.53732339
H        0.00606363      -0.09955711       2.68162396
H        0.58907983      -4.11351463       4.85201904
H       -0.32428336      -2.18101862       7.06334664
H       -0.90708158      -5.66604007       5.94470112
H       -1.02008021      -7.61498456       7.43811485
H       -0.34506686      -7.41501314       9.81190826
H        0.58650088      -3.25488988       9.19837120
C        0.54440982      -5.19803026      11.02670766
C        0.86464859      -5.09592622      12.18492089
Br       1.38244758      -4.93083263      14.05765374
