178
Properties=species:S:1:pos:R:3 pbc="F F F"
C        7.30585412       5.02026695      -4.30213595
C        6.55425114       3.97124301      -3.49825777
N        5.15400326       3.96153592      -3.89695031
C        4.17484275       3.15792650      -3.30689609
C        4.15826508       2.73848271      -2.03102744
C        3.18567557       1.83872484      -1.45549445
H        3.54425537       1.21801163      -0.63660733
C        1.77972046       1.77972046      -1.77972046
C        1.11501176       2.57977167      -2.78643702
C        1.68200419       3.02450780      -3.92624760
C        0.81418954       3.80095685      -4.87432795
O       -0.36989885       4.02742172      -4.63339774
C        1.45203938       4.31169635      -6.12107811
C        0.74556998       4.92668602      -7.08267457
C        1.35935570       5.37507167      -8.34455279
C        2.40418800       4.66284656      -8.95671319
C        2.96266782       5.10069547     -10.16073716
C        2.46534582       6.24590781     -10.77316883
C        1.41238521       6.95268103     -10.19542672
C        0.85872637       6.51419122      -8.98687406
C        3.09421315       2.68850956      -4.25441894
O        3.41022287       2.21789887      -5.34748680
H        8.37169109       4.99866308      -4.05505799
H        6.92410423       6.02410685      -4.08813375
H        7.20096193       4.84585101      -5.37850174
H        6.65640303       4.19762601      -2.43205420
H        6.99240170       2.98476530      -3.68516570
H        5.05634592       3.92333764      -4.91638908
H        4.95044855       3.04511660      -1.35410717
H        0.06840444       2.80790843      -2.58713362
H        2.51433580       4.16359044      -6.24815329
H       -0.31854599       5.11442215      -6.95870695
H        2.79397474       3.74900104      -8.51181681
H        3.77581355       4.53607831     -10.60934979
H        1.01473757       7.84291786     -10.67527134
H        0.03718572       7.07814947      -8.54961783
C        3.03933128       6.69795586     -12.01405290
C        3.52004409       7.07654610     -13.05329330
Br       4.29731606       7.68869451     -14.73365714
C       -3.73156060      -6.45185624      -6.44484018
C       -2.78268986      -5.76662262      -5.47443943
N       -3.53447414      -4.87099864      -4.60701671
C       -2.95515000      -4.04046714      -3.64404820
C       -1.73119920      -3.49076004      -3.70581600
C       -1.11088741      -2.70335342      -2.66565404
H       -0.02464655      -2.75343810      -2.62078968
C       -1.77972046      -1.77972046      -1.77972046
C       -3.20507836      -1.52938901      -1.74675309
C       -4.16111808      -2.43521129      -2.03643023
C       -5.59175493      -2.00091277      -1.89680664
O       -5.89320976      -0.86651861      -1.53119224
C       -6.64465083      -2.99803796      -2.24212505
C       -7.95046906      -2.74936572      -2.05509579
C       -8.99023210      -3.75504447      -2.33370359
C       -8.77170419      -5.12703925      -2.12500431
C       -9.77761440      -6.06196103      -2.38452502
C      -11.01923320      -5.62852552      -2.83666374
C      -11.26469300      -4.26986246      -3.02593752
C      -10.25334432      -3.33658241      -2.76986492
C       -3.79933328      -3.83033205      -2.40747633
O       -4.31768316      -4.80170459      -1.85622078
H       -3.18873517      -7.17229093      -7.06438606
H       -4.20886695      -5.72118393      -7.10629396
H       -4.52467510      -6.98812559      -5.91251399
H       -2.02572060      -5.21712821      -6.04323443
H       -2.27526937      -6.52223406      -4.86482926
H       -4.35168288      -5.34020106      -4.20418869
H       -1.10668937      -3.66589467      -4.57708827
H       -3.49699308      -0.52504596      -1.44140745
H       -6.33260622      -3.95169573      -2.64177759
H       -8.28632067      -1.78340269      -1.68485974
H       -7.81780895      -5.49028591      -1.74669774
H       -9.58013676      -7.11840219      -2.22270270
H      -12.23633683      -3.92616148      -3.37042845
H      -10.46210702      -2.27966134      -2.92318465
C      -12.05685694      -6.59055934      -3.10392376
C      -12.92586682      -7.39626266      -3.32775402
Br     -14.33098229      -8.69901679      -3.68966862
C       -7.28458199       4.24190027       5.10177475
C       -6.44930053       3.20107205       4.37337934
N       -5.06880675       3.65570172       4.28798102
C       -4.05342972       2.96309418       3.62314145
C       -4.20750535       2.17045974       2.54981015
C       -3.16358553       1.39294270       1.92336663
H       -3.48688027       0.47413984       1.43785422
C       -1.77972046       1.77972046       1.77972046
C       -1.18923525       2.99661362       2.29537158
C       -1.57981653       3.63688560       3.41605747
C       -0.80974501       4.86174249       3.81798685
O        0.14362156       5.27414088       3.16040129
C       -1.26099199       5.58009451       5.04372734
C       -0.58321298       6.62293274       5.54878486
C       -0.98864967       7.29483477       6.79549572
C       -1.56873391       6.59098098       7.86403286
C       -1.93394962       7.24774429       9.04240654
C       -1.70255031       8.61318188       9.16869028
C       -1.10503627       9.32511523       8.13034146
C       -0.74510965       8.66514874       6.94953325
C       -2.68578873       3.09789483       4.25345809
O       -2.56176235       2.94492462       5.46892157
H       -8.31253115       3.88753644       5.22534456
H       -7.31077330       5.18305384       4.54251770
H       -6.87493745       4.45530725       6.09506997
H       -6.87081106       3.03918747       3.37608470
H       -6.48683880       2.25357723       4.92191667
H       -4.72343528       3.97369523       5.19894212
H       -5.19374330       2.04303818       2.11289083
H       -0.35234152       3.39115040       1.71995457
H       -2.15538814       5.23173114       5.53896025
H        0.30077745       7.00902163       5.04633892
H       -1.73645031       5.51725415       7.80108813
H       -2.38870858       6.68152305       9.85101002
H       -0.91413735      10.39040448       8.22838493
H       -0.27973742       9.23644478       6.14877081
C       -2.07774635       9.29115948      10.38243420
C       -2.39197304       9.85896573      11.39894472
Br      -2.90005102      10.77706040      13.04255628
C        3.78000008      -6.06377820       6.78447873
C        2.79514727      -5.37643994       5.85216470
N        3.52102140      -4.71284621       4.77862188
C        2.91819533      -3.93476190       3.78670812
C        1.79392921      -3.21233385       3.92151218
C        1.13444090      -2.48036435       2.86508962
H        0.05527727      -2.37982505       2.96377201
C        1.77972046      -1.77972046       1.77972046
C        3.20570110      -1.74185417       1.53366519
C        4.07273034      -2.73175567       1.82827358
C        5.51160436      -2.52733221       1.45053777
O        5.89688374      -1.50228997       0.89174691
C        6.47028987      -3.61378144       1.80074253
C        7.75666835      -3.57968013       1.41858210
C        8.69185373      -4.68097563       1.70615081
C        8.27622330      -6.02283522       1.72468923
C        9.18427297      -7.05220164       1.98762584
C       10.52206817      -6.74774341       2.21461088
C       10.95969960      -5.42524843       2.17554494
C       10.04659842      -4.39628596       1.91690727
C        3.59645374      -4.00348166       2.43720625
O        3.90532890      -5.10011419       1.97016545
H        3.24570971      -6.61618085       7.56352160
H        4.43440002      -5.33207865       7.26986617
H        4.41565623      -6.77013966       6.23951879
H        2.20184438      -4.65771035       6.42652851
H        2.11548068      -6.12184913       5.42500289
H        4.20722018      -5.34064254       4.34820992
H        1.28348855      -3.18625098       4.87993278
H        3.57399986      -0.83561329       1.05383333
H        6.10203714      -4.45560993       2.36843246
H        8.15403719      -2.72550264       0.87504328
H        7.24023887      -6.29030490       1.52424883
H        8.83539598      -8.08140222       2.00444346
H       12.00583557      -5.18372733       2.34336386
H       10.40539955      -3.36928894       1.89026453
C       11.45897778      -7.80729764       2.48506461
C       12.24363957      -8.69467431       2.71156961
Br      13.51237134     -10.12948733       3.07780904
C       -0.00445707       0.01189536      -1.78238275
H       -0.66409135       0.67374010      -2.43557963
H        0.65740317      -0.63156657      -2.45157240
C       -0.90989263      -0.90692880      -0.91072765
C        0.90977584       0.90977584      -0.90977584
C       -0.00465871       1.77757030       0.00794375
H       -0.66225468       2.44313916      -0.64384735
H        0.64322798       2.43503045       0.67728295
C       -1.78241447       0.00034974      -0.00472694
H       -2.45427497      -0.65498947       0.64260836
H       -2.43311707       0.67328779      -0.65473579
C       -0.91132561       0.90220522       0.91563759
C       -0.01476271      -0.02253852       1.78660255
H       -0.67934791      -0.69751639       2.42135241
H        0.63392994       0.61504881       2.47327442
C        0.01484550      -1.77751727      -0.01636693
H        0.67870853      -2.42144646      -0.68295456
H       -0.62264859      -2.45592969       0.64226336
C        1.78714474       0.01002794       0.00389507
H        2.44202412       0.67113390       0.66197326
H        2.45385902      -0.65136977      -0.64189061
C        0.91606151      -0.90478549       0.90901405
