149
Properties=species:S:1:pos:R:3 pbc="F F F"
C        0.00000000       0.00000000       0.00000000
C        6.39595009       4.11036292      -3.39223192
C        5.64434711       3.06133899      -2.58835375
N        4.24409923       3.05163189      -2.98704629
C        3.26493872       2.24802248      -2.39699207
C        3.24836106       1.82857869      -1.12112341
C        2.27577154       0.92882082      -0.54559043
H        2.63435135       0.30810760       0.27329669
C        0.86981644       0.86981644      -0.86981644
C        0.20510774       1.66986765      -1.87653300
C        0.77210017       2.11460378      -3.01634357
C       -0.09571448       2.89105283      -3.96442393
O       -1.27980287       3.11751770      -3.72349372
C        0.54213536       3.40179232      -5.21117409
C       -0.16433404       4.01678200      -6.17277055
C        0.44945168       4.46516765      -7.43464876
C        1.49428397       3.75294254      -8.04680917
C        2.05276380       4.19079145      -9.25083313
C        1.55544180       5.33600378      -9.86326481
Br       2.30878705       5.92930846     -11.49190210
C        0.50248119       6.04277701      -9.28552269
C       -0.05117765       5.60428719      -8.07697003
C        2.18430912       1.77860553      -3.34451492
O        2.50031885       1.30799485      -4.43758278
H        7.46178706       4.08875905      -3.14515397
H        6.01420021       5.11420283      -3.17822973
H        6.29105791       3.93594699      -4.46859771
H        5.74649901       3.28772198      -1.52215017
H        6.08249767       2.07486128      -2.77526167
H        4.14644189       3.01343361      -4.00648505
H        4.04054452       2.13521257      -0.44420314
H       -0.84149959       1.89800440      -1.67722960
H        1.60443177       3.25368641      -5.33824927
H       -1.22845001       4.20451812      -6.04880292
H        1.88407072       2.83909702      -7.60191279
H        2.86590952       3.62617429      -9.69944577
H        0.10483355       6.93301383      -9.76536731
H       -0.87271831       6.16824544      -7.63971381
C       -4.55791068      -3.10311829      -6.23751597
C       -3.52206846      -2.25453082      -5.51744056
N       -3.24386894      -2.82971549      -4.20919299
C       -2.38480630      -2.25855201      -3.26659496
C       -2.14136998      -0.94699972      -3.10969346
C       -1.18725098      -0.37437205      -2.18855976
H       -0.74372222       0.57068240      -2.49612244
C       -0.86981644      -0.86981644      -0.86981644
C       -1.41679027      -2.06712409      -0.26759402
C       -1.78785998      -3.17611708      -0.93907046
C       -2.28824969      -4.33940856      -0.13210402
O       -2.35968293      -4.29596510       1.09443949
C       -2.72062288      -5.55383836      -0.88064053
C       -3.08598169      -6.68402759      -0.25520923
C       -3.45158715      -7.90686839      -0.99081254
C       -2.83371561      -8.25749450      -2.20282557
C       -3.18818636      -9.42942895      -2.87677307
C       -4.15134239     -10.27158589      -2.33178210
Br      -4.63152106     -11.85725556      -3.24122098
C       -4.75804432      -9.95489970      -1.11783688
C       -4.40429115      -8.77779112      -0.44799731
C       -1.63270786      -3.25775103      -2.41697069
O       -1.07515838      -4.21341276      -2.95732533
H       -4.73377911      -2.71605311      -7.24586786
H       -5.51042602      -3.09898878      -5.69721797
H       -4.22775894      -4.14405197      -6.32379169
H       -3.90132521      -1.23191434      -5.42313161
H       -2.59884319      -2.22730171      -6.10647572
H       -3.05577316      -3.83492878      -4.27565863
H       -2.65366196      -0.22605404      -3.74024424
H       -1.50549348      -2.04639888       0.81815794
H       -2.72230300      -5.51408435      -1.95998011
H       -3.12240854      -6.73316938       0.83070688
H       -2.05822885      -7.62930692      -2.63754476
H       -2.70091634      -9.67349324      -3.81712000
H       -5.50455536     -10.61471427      -0.68394506
H       -4.88811201      -8.54586118       0.49873225
C       -2.82718124       5.41321245       5.65815125
C       -1.86534916       4.72838623       4.70030446
N       -2.61492406       3.90964213       3.75821123
C       -2.02877587       3.09702650       2.78415091
C       -0.83528676       2.48763841       2.87513799
C       -0.20262384       1.71960626       1.82795269
H        0.88567482       1.72008103       1.83475605
C       -0.86981644       0.86981644       0.86981644
C       -2.30187842       0.68913957       0.76049040
C       -3.22857856       1.62524900       1.04921996
C       -4.66917982       1.26608201       0.82450044
O       -5.00401568       0.16499065       0.39220221
C       -5.69103231       2.29537290       1.16869656
C       -6.99642780       2.11765776       0.91113295
C       -8.00162341       3.15788201       1.18976267
C       -7.71152830       4.52600683       1.05650054
C       -8.68524297       5.49488485       1.31426055
C       -9.96526875       5.10081109       1.68863054
Br     -11.28365529       6.40946761       2.03687471
C      -10.28071237       3.74814676       1.80192176
C       -9.30166018       2.78049277       1.54792662
C       -2.82199223       2.98339735       1.50204000
O       -3.26908037       4.00223599       0.97458011
H       -2.28228953       6.07828415       6.33512640
H       -3.36793237       4.67680136       6.26189904
H       -3.56904588       6.01006299       5.11649373
H       -1.16188104       4.11840227       5.27608785
H       -1.29587884       5.48590611       4.15083568
H       -3.39001218       4.43484839       3.34150000
H       -0.24552527       2.59330843       3.78112654
H       -2.62416410      -0.28536286       0.39493317
H       -5.35542972       3.21407309       1.62686465
H       -7.35773901       1.18647603       0.48065600
H       -6.72528811       4.86034939       0.73944302
H       -8.43266794       6.54701119       1.21185045
H      -11.28217343       3.43568132       2.08535994
H       -9.56511434       1.72880801       1.64131859
C        4.95092419      -6.01797512       2.92964563
C        4.25889760      -5.10584123       1.92930102
N        3.71694889      -3.94492631       2.62090222
C        2.96461411      -2.94270914       2.00263002
C        2.15959288      -3.09951399       0.93895629
C        1.45342194      -2.03987429       0.25688657
H        1.27295160      -2.20049019      -0.80427953
C        0.86981644      -0.86981644       0.86981644
C        0.94574800      -0.53072244       2.27503795
C        1.97184783      -0.83629320       3.09490649
C        1.89129574      -0.35384604       4.51462049
O        0.93308881       0.29753128       4.92565101
C        3.01623625      -0.71550826       5.42335726
C        3.09507415      -0.25013010       6.68001426
C        4.23720330      -0.55196035       7.56010444
C        5.54342084      -0.68916003       7.06145479
C        6.61365837      -0.96327383       7.91745618
C        6.38776387      -1.08249710       9.28444942
Br       7.83384198      -1.45237593      10.44377969
C        5.10365237      -0.92477713       9.80235139
C        4.03319450      -0.65529521       8.94158987
C        3.16618554      -1.56035636       2.58088767
O        4.30913704      -1.15079598       2.78596345
H        5.41422128      -6.86576679       2.41571201
H        4.23620433      -6.40900958       3.66141886
H        5.73275285      -5.48308866       3.47976110
H        3.46577405      -5.66643438       1.42416273
H        4.98179558      -4.77533724       1.17548779
H        4.41667521      -3.51544659       3.23423876
H        2.03708600      -4.08466907       0.49820516
H        0.09958375       0.03280422       2.66695489
H        3.79263686      -1.36208206       5.04164854
H        2.30682664       0.37511555       7.09315995
H        5.75149389      -0.57445394       5.99913269
H        7.61329034      -1.07302404       7.50521521
H        4.92420349      -1.00813479      10.87087640
H        3.03706787      -0.53527753       9.36289554
