158
Properties=species:S:1:pos:R:3 pbc="F F F"
C        1.79132230       1.79132230      -1.79132230
C        1.70016730       3.17863431      -1.69304897
C        2.50547784       3.99110119      -2.49929776
C        3.40497218       3.41399659      -3.40633822
C        3.48503170       2.01584040      -3.49420939
C        2.68027848       1.20535630      -2.68857875
C        4.28344591       4.23276871      -4.29804357
O        5.03251731       3.66455511      -5.09242382
C        4.20006422       5.75364227      -4.19850712
O        5.07094757       6.41393960      -5.11632071
C        6.37604259       6.43992285      -4.76884911
O        6.81578742       6.02962370      -3.70176519
C        7.21239531       7.08864461      -5.81107281
C        8.51441071       7.24008626      -5.50533841
C        9.42875391       7.90599969      -6.41845140
C       10.77883727       8.09960656      -6.11764980
C       11.59947247       8.77356701      -7.02726994
Br      13.42519970       9.04445168      -6.61543505
C       11.08742261       9.25448577      -8.23428146
C        9.74168259       9.05731763      -8.53859045
C        8.93349126       8.38530647      -7.62474638
O        7.58141953       8.20909812      -7.95951760
C        6.67542812       7.57566191      -7.10603381
O        5.50464536       7.46431694      -7.44850012
H        1.00549774       3.63748164      -0.99313134
H        2.40379401       5.06720832      -2.39479982
H        4.17644894       1.54813645      -4.19407534
H        2.75649145       0.12406725      -2.77160065
H        4.40777586       6.08440233      -3.17487782
H        3.18364403       6.06017305      -4.46569346
H        8.92297900       6.88803858      -4.56082751
H       11.19265329       7.73472297      -5.18073870
H       11.72596674       9.78162474      -8.93877994
H        9.32786186       9.42556256      -9.47317759
C       -1.79132230      -1.79132230      -1.79132230
C       -2.78740660      -1.21029235      -2.57415163
C       -3.59855326      -2.01394978      -3.38337374
C       -3.41243956      -3.40302255      -3.40984488
C       -2.40585405      -3.97338646      -2.61584097
C       -1.59635288      -3.16986401      -1.80799663
C       -4.25464117      -4.31083347      -4.24878355
O       -4.05797704      -5.52513975      -4.20637944
C       -5.34603079      -3.68967438      -5.11650843
O       -6.08912342      -4.66422968      -5.84785477
C       -5.47565682      -5.16863892      -6.94051882
O       -4.39950887      -4.77464259      -7.37302486
C       -6.29487048      -6.21847271      -7.59876954
C       -5.79963616      -6.71075416      -8.74944505
C       -6.52985790      -7.70562088      -9.51772623
C       -6.05290307      -8.21606182     -10.72712874
C       -6.81772215      -9.15046546     -11.43212180
Br      -6.17644505      -9.83403126     -13.07461012
C       -8.05219984      -9.58198282     -10.94200718
C       -8.52716980      -9.07785911      -9.73256175
C       -7.75722054      -8.14703478      -9.03928879
O       -8.26769835      -7.65479568      -7.82754122
C       -7.59386963      -6.69822688      -7.06502732
O       -8.09734383      -6.29728866      -6.02282993
H       -2.94119383      -0.13364244      -2.56127444
H       -4.36468085      -1.52412572      -3.97699558
H       -2.24656426      -5.05098385      -2.62111263
H       -0.82208736      -3.63051586      -1.19955612
H       -4.91862503      -2.94805028      -5.80038070
H       -6.06300966      -3.18719588      -4.45930501
H       -4.84897457      -6.36976931      -9.15310122
H       -5.09552617      -7.88798860     -11.12460020
H       -8.64738661     -10.30573287     -11.49325195
H       -9.48565954      -9.40311217      -9.33783029
C       -1.79132230       1.79132230       1.79132230
C       -1.47575646       3.13870558       1.95738855
C       -2.28015454       3.95083238       2.76488987
C       -3.40385422       3.41354014       3.40791263
C       -3.70841052       2.05520108       3.23146989
C       -2.90436548       1.24500834       2.42483971
C       -4.29370242       4.23197100       4.28858477
O       -5.24968121       3.69345204       4.84636297
C       -3.96531074       5.71079111       4.47611176
O       -4.87636152       6.36984573       5.35500062
C       -6.07926103       6.68071849       4.82483504
O       -6.37809033       6.52141364       3.64767234
C       -6.98071294       7.30357263       5.82782716
C       -8.16914006       7.72957494       5.36112038
C       -9.12075798       8.40256387       6.22988315
C      -10.35043743       8.87740533       5.76825088
C      -11.20910766       9.54200344       6.64919832
Br     -12.86973933      10.19371561       6.02163150
C      -10.85431966       9.73593266       7.98593751
C       -9.63002722       9.25787533       8.44968812
C       -8.78240689       8.59803316       7.56310405
O       -7.55423733       8.13462557       8.06117235
C       -6.61649124       7.48570568       7.25492692
O       -5.55616810       7.11659018       7.74470413
H       -0.60605361       3.56635391       1.46370320
H       -2.00020869       4.99469996       2.87089350
H       -4.57627871       1.61836849       3.72401353
H       -3.15649206       0.19479323       2.30087405
H       -3.93446043       6.22397995       3.50861563
H       -2.97855136       5.78690225       4.94405694
H       -8.45076463       7.60283661       4.31824385
H      -10.64045924       8.73797762       4.72967811
H      -11.52146110      10.25620706       8.66870326
H       -9.33907832       9.40092106       9.48660263
C        1.79132230      -1.79132230       1.79132230
C        2.87079624      -1.22991172       2.47114262
C        3.68227883      -2.03371865       3.27987930
C        3.41285045      -3.40322133       3.40923521
C        2.32284113      -3.95400815       2.71823220
C        1.51307972      -3.15035891       1.91077490
C        4.25078371      -4.31096575       4.25250872
O        3.97710868      -5.50997633       4.30241122
C        5.43324463      -3.71062256       5.00834642
O        6.16126349      -4.68495779       5.75498660
C        5.59111141      -5.07939232       6.91431082
O        4.57219032      -4.58940205       7.38558394
C        6.38547485      -6.13822828       7.58840960
C        5.93764227      -6.52478822       8.79740488
C        6.65402078      -7.51622221       9.58296202
C        6.22713929      -7.91844322      10.85051113
C        6.97754063      -8.85585006      11.56691873
Br       6.40483864      -9.39290844      13.28733936
C        8.14803188      -9.39719594      11.03096202
C        8.57254351      -9.00113827       9.76390889
C        7.81758378      -8.06623412       9.05972621
O        8.27657229      -7.68449353       7.78896944
C        7.61437016      -6.73455911       7.00819457
O        8.07191081      -6.43280999       5.91274162
H        3.08962374      -0.16858621       2.37790076
H        4.51463825      -1.55968413       3.79147977
H        2.09797406      -5.01638470       2.80430196
H        0.67344185      -3.59571992       1.38299758
H        5.09844865      -2.90162616       5.66698119
H        6.13504938      -3.29802562       4.27643554
H        5.03851942      -6.09764065       9.23568503
H        5.32012349      -7.50409431      11.28389717
H        8.73238149     -10.12313546      11.59085447
H        9.48102230      -9.41258255       9.33299715
C       -0.00445707       0.01189536      -1.78238275
H       -0.66409135       0.67374010      -2.43557963
H        0.65740317      -0.63156657      -2.45157240
C       -0.90989263      -0.90692880      -0.91072765
C        0.90977584       0.90977584      -0.90977584
C       -0.00465871       1.77757030       0.00794375
H       -0.66225468       2.44313916      -0.64384735
H        0.64322798       2.43503045       0.67728295
C       -1.78241447       0.00034974      -0.00472694
H       -2.45427497      -0.65498947       0.64260836
H       -2.43311707       0.67328779      -0.65473579
C       -0.91132561       0.90220522       0.91563759
C       -0.01476271      -0.02253852       1.78660255
H       -0.67934791      -0.69751639       2.42135241
H        0.63392994       0.61504881       2.47327442
C        0.01484550      -1.77751727      -0.01636693
H        0.67870853      -2.42144646      -0.68295456
H       -0.62264859      -2.45592969       0.64226336
C        1.78714474       0.01002794       0.00389507
H        2.44202412       0.67113390       0.66197326
H        2.45385902      -0.65136977      -0.64189061
C        0.91606151      -0.90478549       0.90901405
