117
Properties=species:S:1:pos:R:3 pbc="F F F"
C        0.00000000       0.00000000       0.00000000
C        0.88151262       0.88151262      -0.88151262
C        2.24978785       0.63809018      -0.95547741
C        3.05584505       1.44551605      -1.76441272
C        2.50146561       2.49006428      -2.51700329
C        1.12306564       2.73097209      -2.41334546
C        0.31373020       1.92759442      -1.60351544
C        3.30995371       3.38400952      -3.36228039
C        4.41896152       3.06042115      -4.04053699
N        5.05115657       1.84742495      -4.10721103
C        6.05050741       2.08851613      -4.89343323
O        6.17721891       3.34372766      -5.38435710
C        5.13759962       4.06135893      -4.87564630
O        4.88229871       5.23194739      -5.07181514
C        7.08422141       1.13030111      -5.31450614
C        8.14237873       1.51519535      -6.14788564
C        9.11259228       0.58200681      -6.52080031
C        9.02919655      -0.73389441      -6.06439998
C        7.97398407      -1.11379678      -5.23618168
Br       7.86423987      -2.89718000      -4.61836157
C        7.00042152      -0.19085661      -4.85803929
H        2.70239091      -0.17195712      -0.39001181
H        4.12410731       1.24412270      -1.79465307
H        0.66064940       3.54328003      -2.97069540
H       -0.75284537       2.12735995      -1.54545528
H        2.93356337       4.40313212      -3.44301305
H        8.22782603       2.53604160      -6.51357628
H        9.93524016       0.88083192      -7.16681820
H        9.78958320      -1.45341968      -6.35874320
H        6.18054714      -0.49651055      -4.21133429
C       -0.88151262      -0.88151262      -0.88151262
C       -2.03074756      -0.35180767      -1.46080020
C       -2.83655885      -1.16006528      -2.26914967
C       -2.49392075      -2.49620983      -2.51840260
C       -1.34183007      -3.01625491      -1.90929820
C       -0.53458603      -2.21218875      -1.09806528
C       -3.32175323      -3.39479957      -3.33969083
C       -4.06132073      -3.05488764      -4.40371129
N       -4.22027531      -1.81732244      -4.96819479
C       -5.02047611      -2.05469193      -5.95728873
O       -5.43216254      -3.33099982      -6.14214130
C       -4.84508915      -4.06949454      -5.16002116
O       -4.95197917      -5.26385280      -4.97022926
C       -5.54383682      -1.06924356      -6.91594828
C       -6.43379628      -1.43907381      -7.93258963
C       -6.91922367      -0.47592962      -8.82024610
C       -6.51857404       0.85481480      -8.69594289
C       -5.63169865       1.21910016      -7.68377049
Br      -5.09153070       3.02315768      -7.51704842
C       -5.14109549       0.26621817      -6.79272688
H       -2.31273595       0.68386781      -1.29157746
H       -3.73673294      -0.72705869      -2.69909144
H       -1.05361138      -4.05368909      -2.06732437
H        0.35783426      -2.63409632      -0.64370780
H       -3.29613024      -4.44223855      -3.04133975
H       -6.76071134      -2.47024377      -8.04648881
H       -7.61143121      -0.76245709      -9.60900198
H       -6.90243294       1.59817294      -9.39064673
H       -4.44932440       0.55987361      -6.00592009
C       -0.88151262       0.88151262       0.88151262
C       -2.15350093       0.44726461       1.24258990
C       -2.95936483       1.25517970       2.05122928
C       -2.49696638       2.49325584       2.51831098
C       -1.21927852       2.92116743       2.12693723
C       -0.41111526       2.11752428       1.31620052
C       -3.31548282       3.39146361       3.34929720
C       -4.22762112       3.03062170       4.26167683
N       -4.60790338       1.76767284       4.63021633
C       -5.50075483       1.99177973       5.53992222
O       -5.77869706       3.28091575       5.84569086
C       -4.98016895       4.04471018       5.04972573
O       -4.91730063       5.25655902       5.01220159
C       -6.26285484       0.97924466       6.28692916
C       -7.23194580       1.34252228       7.23099164
C       -7.94445431       0.35524199       7.91570309
C       -7.69205946      -0.99315396       7.66079663
C       -6.72594713      -1.35109206       6.72151392
Br      -6.38695858      -3.17888860       6.37735146
C       -6.00911121      -0.37420355       6.03269655
H       -2.53129911      -0.51302920       0.90217568
H       -3.95461900       0.90007543       2.30818866
H       -0.83362521       3.88368039       2.45731924
H        0.57849957       2.46567124       1.03279818
H       -3.12506440       4.45377614       3.20086800
H       -7.44609337       2.38750687       7.44384368
H       -8.69807515       0.63692771       8.64788742
H       -8.25233149      -1.75503735       8.19761259
H       -5.25703296      -0.66307326       5.30141118
C        0.88151262      -0.88151262       0.88151262
C        2.12538019      -0.41814690       1.29982835
C        2.93122254      -1.22615424       2.10839703
C        2.49613672      -2.49398722       2.51840924
C        1.24735829      -2.95017923       2.06984567
C        0.43943381      -2.14644331       1.25896293
C        3.31695745      -3.39253030       3.34675589
C        4.18571681      -3.03312715       4.30107570
N        4.51040036      -1.77162481       4.72376737
C        5.37991209      -1.99705746       5.65548722
O        5.69138935      -3.28600519       5.92790913
C        4.94600580      -4.04813125       5.08046780
O        4.92573264      -5.25941109       5.00091751
C        6.08204679      -0.98600245       6.46097943
C        7.03132203      -1.34910813       7.42502957
C        7.68683382      -0.36279095       8.16577462
C        7.39718049       0.98445892       7.94698055
C        6.45090497       1.34216637       6.98763038
Br       6.06136255       3.16846611       6.69252499
C        5.79085186       0.36622662       6.24297896
H        2.48125171       0.56511301       1.00430690
H        3.90479376      -0.84741344       2.41067588
H        0.88404661      -3.93557279       2.35500544
H       -0.52787024      -2.51714791       0.93069219
H        3.16783671      -4.45486564       3.15700620
H        7.27381926      -2.39311491       7.61050975
H        8.42508189      -0.64427667       8.91353172
H        7.91317891       1.74565567       8.52738348
H        5.05387027       0.65490844       5.49640905
