146
Properties=species:S:1:pos:R:3 pbc="F F F"
C        1.79141664       1.79141664      -1.79141664
C        3.15969188       1.54799420      -1.86538143
C        3.96574907       2.35542007      -2.67431674
C        3.41136964       3.39996831      -3.42690732
C        2.03296967       3.64087611      -3.32324948
C        1.22363423       2.83749844      -2.51341946
C        4.21985774       4.29391355      -4.27218442
C        5.32886555       3.97032517      -4.95044101
N        5.96106059       2.75732897      -5.01711506
C        6.96041144       2.99842016      -5.80333725
O        7.08712293       4.25363168      -6.29426112
C        6.04750365       4.97126295      -5.78555032
O        5.79220274       6.14185141      -5.98171916
C        7.99412544       2.04020514      -6.22441016
C        9.05228276       2.42509937      -7.05778966
C       10.02249630       1.49191083      -7.43070433
C        9.93910058       0.17600961      -6.97430401
C        8.88388810      -0.20389275      -6.14608571
C        7.91032555       0.71904741      -5.76794332
H        3.61229494       0.73794690      -1.29991583
H        5.03401134       2.15402673      -2.70455709
H        1.57055342       4.45318406      -3.88059943
H        0.15705866       3.03726397      -2.45535931
H        3.84346740       5.31303614      -4.35291708
H        9.13773006       3.44594562      -7.42348031
H       10.84514418       1.79073595      -8.07672223
H       10.69948723      -0.54351566      -7.26864723
H        7.09045116       0.41339347      -5.12123831
C        8.80029805      -1.56226147      -5.67550400
C        8.73029138      -2.69989526      -5.28139183
Br       8.61709651      -4.53935290      -4.64414577
C       -1.79141664      -1.79141664      -1.79141664
C       -2.85782874      -1.22877043      -2.48646834
C       -3.66364579      -2.03719929      -3.29464080
C       -3.40234251      -3.40786965      -3.42803310
C       -2.33439790      -3.95894331      -2.70375405
C       -1.52765166      -3.15457374      -1.89232674
C       -4.23572225      -4.30564172      -4.24459173
C       -4.87554507      -3.99441569      -5.37967098
N       -4.90641679      -2.79293541      -6.03615241
C       -5.65328412      -3.04668522      -7.06219951
O       -6.14263878      -4.30240148      -7.18997547
C       -5.67782196      -5.00591412      -6.12058085
O       -5.88316443      -6.17355185      -5.85905703
C       -6.03845421      -2.10001845      -8.12026808
C       -6.88234863      -2.48153053      -9.17129264
C       -7.23615840      -1.55448714     -10.15446592
C       -6.74978314      -0.24822745     -10.09140361
C       -5.90905719       0.12765179      -9.04467565
C       -5.54958418      -0.78928331      -8.05844879
H       -3.07507901      -0.16696012      -2.40811853
H       -4.49924185      -1.57676077      -3.81659253
H       -2.11182813      -5.02211487      -2.77039391
H       -0.70061351      -3.60168344      -1.34738499
H       -4.30590001      -5.32815933      -3.87536128
H       -7.27442767      -3.49388887      -9.23883945
H       -7.89258904      -1.84996296     -10.97005036
H       -7.03136764       0.46719394     -10.86044509
H       -4.89294224      -0.48682562      -7.24531509
C       -5.40899907       1.47653932      -8.98108083
C       -4.99020040       2.60623263      -8.92782017
Br      -4.31303836       4.43285116      -8.84170219
C       -1.79141664       1.79141664       1.79141664
C       -1.22288140       2.51399982       2.83618629
C       -2.03134984       3.32212763       3.64200841
C       -3.40830796       3.42793264       3.40200466
C       -3.96479932       2.67629912       2.35599682
C       -3.16034891       1.86483316       1.54937007
C       -4.30577343       4.24341212       4.23677016
C       -4.00330182       5.39435900       4.85197091
N       -2.81288910       6.07140609       4.85120943
C       -3.07156144       7.10567408       5.58493332
O       -4.32086548       7.22065298       6.09349728
C       -5.01368915       6.13176442       5.65886335
O       -6.17305533       5.85417545       5.88854253
C       -2.13680063       8.18596945       5.93597065
C       -2.52199269       9.24471826       6.76846084
C       -1.60609511      10.24927262       7.08974374
C       -0.30732016      10.19989059       6.58220344
C        0.07222046       9.14539657       5.75290494
C       -0.83361480       8.13786272       5.42583876
H       -0.15637838       2.45726760       3.03651169
H       -1.56591453       3.86598790       4.46069272
H       -5.03255225       2.72121077       2.15057389
H       -3.61192152       1.29836041       0.73940001
H       -5.32049253       3.85827619       4.33065191
H       -3.52861527       9.30191655       7.17662417
H       -1.90440018      11.07088766       7.73731452
H        0.39946711      10.98557563       6.83851027
H       -0.52837539       7.31881163       4.77789593
C        1.41338975       9.09596553       5.23096480
C        2.53661903       9.05456704       4.79383993
Br       4.35278577       8.98762917       4.08704599
C        1.79141664      -1.79141664       1.79141664
C        1.38051188      -2.11024456       3.08231107
C        2.18835778      -2.91893369       3.88819441
C        3.40263972      -3.42810879       3.40749675
C        3.80781048      -3.07898355       2.11030123
C        3.00422754      -2.26836183       1.30196277
C        4.30049333      -4.26108679       4.22437558
C        3.94042771      -5.14152748       5.16767654
N        2.67877595      -5.46884590       5.58788277
C        2.90288124      -6.36176278       6.49752483
O        4.19071486      -6.69288495       6.75141593
C        4.95348658      -5.93611656       5.91471378
O        6.16393186      -5.93055922       5.82128224
C        1.89180601      -7.06425380       7.30268092
C        2.25606846      -7.99313194       8.28597139
C        1.27051296      -8.63521315       9.03938535
C       -0.07714808      -8.35280981       8.81375246
C       -0.43611654      -7.42876957       7.83342803
C        0.53904549      -6.78243014       7.07584064
H        0.43861875      -1.73669922       3.47483970
H        1.85215325      -3.14246653       4.89797538
H        4.75196986      -3.44275077       1.70961628
H        3.33426773      -2.01808969       0.29732451
H        5.36100841      -4.14406253       4.00434968
H        3.30057424      -8.22683029       8.47975146
H        1.55301333      -9.35556990       9.80401912
H       -0.83764496      -8.85646760       9.40579616
H        0.24938225      -6.06275380       6.31294690
C       -1.82752077      -7.13817835       7.60288301
C       -2.99282181      -6.89480820       7.40980155
Br      -4.87701504      -6.50129925       7.09760518
C       -0.00445707       0.01189536      -1.78238275
H       -0.66409135       0.67374010      -2.43557963
H        0.65740317      -0.63156657      -2.45157240
C       -0.90989263      -0.90692880      -0.91072765
C        0.90977584       0.90977584      -0.90977584
C       -0.00465871       1.77757030       0.00794375
H       -0.66225468       2.44313916      -0.64384735
H        0.64322798       2.43503045       0.67728295
C       -1.78241447       0.00034974      -0.00472694
H       -2.45427497      -0.65498947       0.64260836
H       -2.43311707       0.67328779      -0.65473579
C       -0.91132561       0.90220522       0.91563759
C       -0.01476271      -0.02253852       1.78660255
H       -0.67934791      -0.69751639       2.42135241
H        0.63392994       0.61504881       2.47327442
C        0.01484550      -1.77751727      -0.01636693
H        0.67870853      -2.42144646      -0.68295456
H       -0.62264859      -2.45592969       0.64226336
C        1.78714474       0.01002794       0.00389507
H        2.44202412       0.67113390       0.66197326
H        2.45385902      -0.65136977      -0.64189061
C        0.91606151      -0.90478549       0.90901405
