125
Properties=species:S:1:pos:R:3 pbc="F F F"
C        0.00000000       0.00000000       0.00000000
C        0.88151262       0.88151262      -0.88151262
C        2.24978785       0.63809018      -0.95547741
C        3.05584505       1.44551605      -1.76441272
C        2.50146561       2.49006428      -2.51700329
C        1.12306564       2.73097209      -2.41334546
C        0.31373020       1.92759442      -1.60351544
C        3.30995371       3.38400952      -3.36228039
C        4.41896152       3.06042115      -4.04053699
N        5.05115657       1.84742495      -4.10721103
C        6.05050741       2.08851613      -4.89343323
O        6.17721891       3.34372766      -5.38435710
C        5.13759962       4.06135893      -4.87564630
O        4.88229871       5.23194739      -5.07181514
C        7.08422141       1.13030111      -5.31450614
C        8.14237873       1.51519535      -6.14788564
C        9.11259228       0.58200681      -6.52080031
C        9.02919655      -0.73389441      -6.06439998
C        7.97398407      -1.11379678      -5.23618168
C        7.00042152      -0.19085661      -4.85803929
H        2.70239091      -0.17195712      -0.39001181
H        4.12410731       1.24412270      -1.79465307
H        0.66064940       3.54328003      -2.97069540
H       -0.75284537       2.12735995      -1.54545528
H        2.93356337       4.40313212      -3.44301305
H        8.22782603       2.53604160      -6.51357628
H        9.93524016       0.88083192      -7.16681820
H        9.78958320      -1.45341968      -6.35874320
H        6.18054714      -0.49651055      -4.21133429
C        7.89039402      -2.47216549      -4.76559998
C        7.82038735      -3.60979929      -4.37148780
Br       7.70719249      -5.44925692      -3.73424175
C       -0.88151262      -0.88151262      -0.88151262
C       -1.69335772      -1.85054256      -0.29945516
C       -2.50133347      -2.65639171      -1.10804863
C       -2.51760154      -2.49104729      -2.49988436
C       -1.67738541      -1.52167500      -3.06832277
C       -0.86581578      -0.71543888      -2.26358541
C       -3.32971290      -3.33049606      -3.39603467
C       -4.52915030      -3.86328898      -3.12748038
N       -5.26911257      -3.75661029      -1.98006969
C       -6.32840897      -4.44640496      -2.25764285
O       -6.40412318      -5.01936229      -3.48181819
C       -5.25564631      -4.68575818      -4.13320037
O       -4.92881926      -4.99698288      -5.26025910
C       -7.47671485      -4.68314708      -1.36916673
C       -8.55920999      -5.47737714      -1.76887259
C       -9.62926176      -5.68969353      -0.89644410
C       -9.62170116      -5.11130596       0.37330500
C       -8.54332291      -4.32035179       0.76730571
C       -7.47051677      -4.10185113      -0.09523630
H       -1.70673027      -1.99161657       0.77790124
H       -3.11630066      -3.41579572      -0.63078670
H       -1.65186647      -1.37623851      -4.14651986
H       -0.22957042       0.03484401      -2.72524345
H       -2.89573323      -3.50386606      -4.38010926
H       -8.58479025      -5.93936901      -2.75328466
H      -10.46942708      -6.30753314      -1.20593006
H      -10.45838125      -5.28292470       1.04639923
H       -6.63326500      -3.48309914       0.22099326
C       -8.53719887      -3.72515941       2.07852977
C       -8.53206998      -3.22668580       3.17667992
Br      -8.52377701      -2.42069614       4.95229584
C       -0.88151262       0.88151262       0.88151262
C       -0.55245861       2.22052669       1.07037013
C       -1.36159375       3.02716796       1.87701210
C       -2.51217531       2.50902117       2.48733671
C       -2.81549516       1.15194802       2.29994000
C       -2.00757758       0.34106125       1.49620123
C       -3.38137075       3.30905202       3.36582086
C       -3.64377294       4.61829865       3.25784807
N       -3.17568192       5.50503522       2.32507541
C       -3.74060629       6.61504309       2.67680739
O       -4.55711825       6.59184657       3.75633885
C       -4.55829921       5.30740907       4.20889657
O       -5.16655542       4.85995362       5.15955219
C       -3.58455916       7.92286586       2.02160364
C       -4.22429237       9.06810420       2.51306315
C       -4.04668739      10.29650817       1.87220383
C       -3.23270849      10.38462431       0.74236932
C       -2.59860253       9.24254793       0.25521852
C       -2.76896138       8.01182084       0.88682199
H        0.32841778       2.64892674       0.59993663
H       -1.07581864       4.06659614       2.02046830
H       -3.69191544       0.71143960       2.77126980
H       -2.26685324      -0.70517912       1.35829573
H       -3.86418927       2.74940123       4.16611804
H       -4.86159184       9.02248974       3.39336234
H       -4.54218123      11.18635972       2.25434934
H       -3.09914898      11.34524131       0.25051644
H       -2.27003897       7.12590469       0.49942722
C       -1.75827338       9.33597716      -0.91042204
C       -1.05449772       9.41422415      -1.88664600
Br       0.08344800       9.54074290      -3.46511758
C        0.88151262      -0.88151262       0.88151262
C        1.79520649      -0.29557666       1.75257229
C        2.60108326      -1.10425006       2.56044049
C        2.49038692      -2.50092072       2.51722555
C        1.57689164      -3.07214967       1.61834187
C        0.77091756      -2.26719922       0.80672328
C        3.33311651      -3.39590506       3.32722207
C        3.80888480      -3.15490877       4.55612608
N        3.62887474      -2.04253150       5.33438630
C        4.28832495      -2.33533117       6.40880065
O        4.90593122      -3.53887076       6.46050169
C        4.64224695      -4.15655919       5.27579870
O        5.00998173      -5.25716835       4.91891116
C        4.44592746      -1.48458197       7.59851923
C        5.21360152      -1.89627652       8.69558168
C        5.35042491      -1.05938624       9.80558823
C        4.72300366       0.18675797       9.82345644
C        3.95866953       0.59271778       8.73041723
C        3.81538511      -0.23442716       7.61779193
H        1.89297293       0.78499354       1.81246620
H        3.31709521      -0.62314026       3.22264761
H        1.47526436      -4.15324503       1.54611544
H        0.06420527      -2.73154071       0.12422388
H        3.56162641      -4.35475142       2.86333071
H        5.71283805      -2.86265131       8.70195456
H        5.94762200      -1.37812467      10.65714361
H        4.83594377       0.83229151      10.69125446
H        3.21689966       0.09089484       6.76936606
C        3.31277469       1.87957877       8.75063259
C        2.77183776       2.95732484       8.76756295
Br       1.89718850       4.69994909       8.79493791
