106
Properties=species:S:1:pos:R:3 pbc="F F F"
S        4.78539346       1.79451624      -9.54528432
C        5.06180289       1.53074876      -7.93579540
N        6.15722788       0.90845683      -7.45572618
C        6.23633786       0.77437058      -6.11264831
O        7.14016147       0.24785687      -5.49121610
C        5.06514517       1.35604720      -5.40844226
S        4.03108401       1.99331679      -6.61789556
C        4.81525381       1.32150446      -3.97742720
H        5.50570444       0.74126919      -3.37096755
C        3.69963743       1.96551352      -3.29034454
C        2.87560286       1.20142072      -2.45655491
C        1.79562667       1.79562667      -1.79562667
C        1.53984294       3.15923121      -1.95227712
O        0.47527289       3.72703285      -1.30391164
C        2.37560519       3.92585036      -2.76845161
Br       2.07076363       5.78350761      -2.99792710
C        3.45374406       3.33566697      -3.43176901
H        6.88723720       0.55802424      -8.05653825
H        3.06358995       0.13668032      -2.33257092
H        0.44592608       4.67107052      -1.54287306
H        4.10161363       3.94532291      -4.05790683
S       -7.17613838      -0.89032837      -8.05872727
C       -6.93641639      -1.14933436      -6.44259631
N       -7.91712753      -1.08455130      -5.51973206
C       -7.55849636      -1.32618052      -4.23867987
O       -8.29313931      -1.31721479      -3.26888034
C       -6.11051709      -1.62399504      -4.09512249
S       -5.43339746      -1.54125143      -5.66764747
C       -5.39902602      -1.86405965      -2.85109981
H       -5.95923867      -1.72908649      -1.92961601
C       -3.99165879      -2.23317108      -2.73066560
C       -3.14927772      -1.46579935      -1.91850143
C       -1.79562667      -1.79562667      -1.79562667
C       -1.27757681      -2.90173089      -2.47204357
O        0.05120199      -3.20985183      -2.34756753
C       -2.12385413      -3.67983883      -3.26621420
Br      -1.46311187      -5.19774323      -4.19134325
C       -3.47566277      -3.35241908      -3.39309820
H       -8.87251706      -0.86944370      -5.75983893
H       -3.54259322      -0.59848703      -1.39176094
H        0.23114840      -3.99401274      -2.89700531
H       -4.12557837      -3.97114985      -4.00811514
S       -4.35218291       9.69369221       2.07931890
C       -3.33637105       8.52688835       2.66508766
N       -2.27764868       8.78478007       3.45898213
C       -1.54702291       7.71909889       3.85723494
O       -0.56276176       7.74448075       4.57199192
C       -2.06966877       6.43462303       3.32534282
S       -3.44576619       6.81841188       2.37811830
C       -1.48026204       5.11991806       3.51400537
H       -0.51906140       5.07927585       4.01960392
C       -2.04721465       3.85642627       3.05185456
C       -1.26972899       3.00669007       2.25715943
C       -1.79562667       1.79562667       1.79562667
C       -3.09629842       1.41907156       2.13598130
O       -3.60086773       0.23315530       1.67219434
C       -3.86473000       2.25831197       2.94686519
Br      -5.63107926       1.77824550       3.44287357
C       -3.34383605       3.46942095       3.40792305
H       -2.03374859       9.71923092       3.74882017
H       -0.25680268       3.29411117       1.98192734
H       -4.51609843       0.14852637       1.99524485
H       -3.94967144       4.10995870       4.04521322
S        5.52163358      -9.20860421       1.39495623
C        4.26101920      -8.30199107       1.96533680
N        3.15821710      -8.82716362       2.53603017
C        2.21838591      -7.95004408       2.95492676
O        1.16198472      -8.22501601       3.49223371
C        2.59654545      -6.53732453       2.69576465
S        4.13355078      -6.57103786       1.93770773
C        1.78368502      -5.36375331       2.96674715
H        0.76804627      -5.53748253       3.31241238
C        2.19890877      -3.97662265       2.77996406
C        1.41220963      -3.12575967       1.99560920
C        1.79562667      -1.79562667       1.79562667
C        2.95966043      -1.30299941       2.38869143
O        3.32657328      -0.00002166       2.17962244
C        3.73359752      -2.14744633       3.18886331
Br       5.31475270      -1.51446192       4.02298372
C        3.35514387      -3.47685855       3.38917763
H        3.02972586      -9.82056507       2.65150875
H        0.50615976      -3.50207505       1.52460637
H        4.16306192       0.15696052       2.65376826
H        3.96221061      -4.12165535       4.02097740
C       -0.00445707       0.01189536      -1.78238275
H       -0.66409135       0.67374010      -2.43557963
H        0.65740317      -0.63156657      -2.45157240
C       -0.90989263      -0.90692880      -0.91072765
C        0.90977584       0.90977584      -0.90977584
C       -0.00465871       1.77757030       0.00794375
H       -0.66225468       2.44313916      -0.64384735
H        0.64322798       2.43503045       0.67728295
C       -1.78241447       0.00034974      -0.00472694
H       -2.45427497      -0.65498947       0.64260836
H       -2.43311707       0.67328779      -0.65473579
C       -0.91132561       0.90220522       0.91563759
C       -0.01476271      -0.02253852       1.78660255
H       -0.67934791      -0.69751639       2.42135241
H        0.63392994       0.61504881       2.47327442
C        0.01484550      -1.77751727      -0.01636693
H        0.67870853      -2.42144646      -0.68295456
H       -0.62264859      -2.45592969       0.64226336
C        1.78714474       0.01002794       0.00389507
H        2.44202412       0.67113390       0.66197326
H        2.45385902      -0.65136977      -0.64189061
C        0.91606151      -0.90478549       0.90901405
