193
Properties=species:S:1:pos:R:3 pbc="F F F"
C        0.00000000       0.00000000       0.00000000
C        7.43917649      -0.93091542      -3.96224654
O        6.78820069      -0.18682707      -2.93984930
C        7.36651580       0.98539571      -2.53149859
C        8.67462439       1.35627814      -2.87533238
C        9.24841958       2.53906577      -2.38086183
C        8.49863666       3.36299065      -1.53997657
C        7.19843329       2.99934985      -1.18562687
C        6.61602233       1.83163409      -1.69387082
O        5.31915637       1.64727128      -1.27853250
C        4.46560745       0.94347139      -2.17851206
C        3.03028336       1.33208538      -1.90960068
C        2.48577088       2.48396579      -2.49700824
C        1.14600983       2.81920781      -2.29220248
C        0.33950647       2.01337851      -1.48888360
C        0.88219738       0.88219738      -0.88219738
C        2.22004852       0.54160088      -1.08185183
C       10.62212070       2.88645139      -2.84467340
O       10.98293180       2.54308396      -3.97151199
N       11.49267414       3.57749653      -2.02245764
N       11.26276419       3.79526776      -0.70317119
C       12.20515884       4.41241805      -0.06076159
C       12.06456496       4.72268769       1.38147232
C       10.91509857       4.26866832       2.04972387
C       10.72460143       4.54402754       3.40367175
C       11.67966284       5.27459729       4.10368666
C       12.82680696       5.72874577       3.45046630
C       13.02478579       5.45576066       2.09057789
H        8.37928175      -1.35742514      -3.59896548
H        7.59581000      -0.32179665      -4.85862691
H        6.78197854      -1.76190756      -4.23646843
H        9.28393020       0.73536993      -3.52559440
H        8.90439162       4.29821378      -1.16511797
H        6.62195213       3.64401229      -0.52564786
H        4.57360744      -0.13597816      -2.02244729
H        4.68927526       1.18147197      -3.22692423
H        3.10482513       3.11993936      -3.12701750
H        0.73013446       3.70631575      -2.76315846
H       -0.70440055       2.27558072      -1.34145755
H        2.63421584      -0.34354964      -0.60456973
H       12.40785125       3.76418466      -2.41758252
H       13.12580530       4.72629378      -0.57883583
H       10.15658875       3.69405593       1.52023608
H        9.82956042       4.18718481       3.90876172
H       11.53176957       5.49122113       5.15908614
H       13.56173926       6.29914559       4.01454609
C       14.23206789       5.96802923       1.49589240
C       15.24316665       6.39705417       0.99784330
Br      16.87802783       7.09075119       0.19254003
C        0.96081831      -4.03539957      -7.39592634
O        0.22009945      -3.00088249      -6.76043989
C       -0.94341049      -2.58743549      -7.35256412
C       -1.30589392      -2.93950445      -8.66083654
C       -2.47925073      -2.43981249      -9.24928395
C       -3.30225493      -1.58523030      -8.51411864
C       -2.94685138      -1.22265262      -7.21390601
C       -1.78876129      -1.73590999      -6.61685596
O       -1.61205718      -1.31081652      -5.32208645
C       -0.92364976      -2.20935791      -4.45458322
C       -1.32237061      -1.92447438      -3.02512443
C       -2.48406464      -2.49702310      -2.48565717
C       -2.82914858      -2.27754453      -1.15072702
C       -2.02334720      -1.47421953      -0.34420184
C       -0.88219738      -0.88219738      -0.88219738
C       -0.53173075      -1.09655489      -2.21521559
C       -2.81872191      -2.91263086     -10.62189271
O       -2.48213755      -4.04554286     -10.96984733
N       -3.49491059      -2.09210777     -11.50560995
N       -3.70307791      -0.76900623     -11.28911899
C       -4.30633131      -0.12955012     -12.24245706
C       -4.60513216       1.31651036     -12.11715853
C       -4.15528683       1.99085469     -10.96961089
C       -4.42039004       3.34877026     -10.79333744
C       -5.13643789       4.04670367     -11.76083926
C       -5.58630049       3.38741089     -12.90619684
C       -5.32355825       2.02351021     -13.08992052
H        1.39867313      -3.68411876      -8.33537646
H        0.34523582      -4.92778310      -7.55009298
H        1.78361507      -4.31106362      -6.72909086
H       -0.68543960      -3.60047608      -9.25897885
H       -4.23058023      -1.20582080      -8.93132234
H       -3.59068690      -0.55204624      -6.64887914
H        0.15802863      -2.06365369      -4.55445151
H       -1.16889425      -3.25758218      -4.67119504
H       -3.12013316      -3.12688419      -3.10476465
H       -3.72394724      -2.73708625      -0.73857519
H       -2.29332466      -1.31535126       0.69603820
H        0.36115133      -0.63065549      -2.62573178
H       -3.67708604      -2.49361613     -12.41891625
H       -4.61671706      -0.65293893     -13.16127892
H       -3.59197484       1.46306683     -10.20150059
H       -4.06693167       3.85857671      -9.89962855
H       -5.34506182       5.10520795     -11.62405069
H       -6.14530168       3.94995856     -13.65099564
C       -5.83049861       1.42272565     -14.29643176
C       -6.25506117       0.91956858     -15.30688493
Br      -6.94154292       0.10600616     -16.94070223
C        1.15386788       7.03955978       4.58481571
O        0.81480926       5.66261462       4.69341757
C        0.20029536       5.24130052       5.84240495
C        0.12173461       6.02545600       7.00251352
C       -0.46288752       5.52710813       8.17835152
C       -0.98238420       4.23167257       8.18754710
C       -0.90260963       3.44026686       7.04053352
C       -0.33952586       3.94158942       5.86041196
O       -0.37981832       3.04739226       4.81774957
C       -0.46648537       3.61066472       3.51044081
C       -1.09375521       2.60310387       2.57511033
C       -2.48949184       2.49567570       2.48157737
C       -3.07356348       1.60191321       1.58194344
C       -2.26910274       0.79786283       0.77480301
C       -0.88219738       0.88219738       0.88219738
C       -0.29183761       1.77237649       1.77928714
C       -0.55807680       6.44877623       9.34639246
O       -0.68818281       7.65823418       9.15111076
N       -0.49186424       5.96203208      10.63873198
N       -0.12851600       4.69053211      10.94215501
C       -0.06288213       4.40911443      12.20634192
C        0.30720182       3.04906476      12.66391739
C        0.65326333       2.09310046      11.69420590
C        0.99649532       0.79384948      12.06760306
C        0.99816484       0.43645596      13.41228236
C        0.65829219       1.37877377      14.38460485
C        0.31255219       2.68574642      14.01677433
H        1.95888390       7.30123590       5.27847008
H        0.27611217       7.67769420       4.73105823
H        1.52280121       7.21054927       3.56879134
H        0.51873397       7.03609277       7.02753573
H       -1.46644527       3.82877125       9.07250686
H       -1.30509149       2.42970478       7.05681600
H        0.53801385       3.85300456       3.14508586
H       -1.08561163       4.51745659       3.49460325
H       -3.12774206       3.11881057       3.10522937
H       -4.15607286       1.53627249       1.50726333
H       -2.73067297       0.11130013       0.07066461
H        0.79147218       1.83136604       1.85534208
H       -0.55803721       6.66119957      11.37038164
H       -0.29060242       5.17533714      12.96499534
H        0.65957083       2.35321198      10.63676745
H        1.26163240       0.06318036      11.30643555
H        1.26424032      -0.57662049      13.70476537
H        0.66454387       1.08012438      15.43075825
C       -0.03059281       3.58989389      15.08371802
C       -0.31797674       4.34711741      15.97728337
Br      -0.78265226       5.57148378      17.42210296
C        5.76801985      -6.06477316      -1.36228541
O        4.49247742      -5.82815982      -0.77941431
C        4.01802965      -6.74431809       0.12106236
C        4.59297922      -8.01055875       0.30269695
C        4.03357647      -8.94179466       1.19297604
C        2.89063878      -8.59554787       1.91541721
C        2.30622910      -7.34063909       1.73654182
C        2.87366367      -6.40223180       0.86563177
O        2.19721894      -5.20632502       0.84141619
C        2.97982545      -4.04781392       0.55995153
C        2.29685723      -2.83234360       1.14276858
C        2.49679477      -2.48313879       2.48681135
C        1.90853410      -1.33285042       3.01603561
C        1.10492371      -0.52589181       2.21095306
C        0.88219738      -0.88219738       0.88219738
C        1.46614094      -2.03036301       0.34699728
C        4.74312740     -10.24119126       1.36892683
O        5.96864628     -10.28011798       1.24876348
N        4.04102733     -11.39757272       1.65402826
N        2.68930171     -11.48967240       1.58222903
C        2.18997408     -12.66113196       1.82723245
C        0.72535683     -12.88468706       1.79573644
C       -0.10260444     -11.81194137       1.42470609
C       -1.48880729     -11.96234265       1.39142186
C       -2.06183736     -13.18486028       1.72755055
C       -1.24874572     -14.25836095       2.09547120
C        0.14447037     -14.11448957       2.13100862
H        5.73657610      -6.92382375      -2.03957777
H        6.53902821      -6.18819220      -0.59458014
H        6.02925898      -5.18348493      -1.95620451
H        5.48088658      -8.31030475      -0.24629680
H        2.45187555      -9.28320009       2.63264774
H        1.41251177      -7.07978336       2.29931715
H        3.06841462      -3.91617041      -0.52450847
H        3.98396392      -4.11429519       0.99941235
H        3.12295634      -3.10420614       3.12461951
H        2.08100216      -1.06359587       4.05501064
H        0.65791533       0.37250830       2.62723069
H        1.28686482      -2.29970790      -0.69133678
H        4.60425345     -12.23549649       1.74986848
H        2.84652422     -13.51147278       2.07293790
H        0.32627067     -10.84754860       1.15658934
H       -2.11837715     -11.12325636       1.10310429
H       -3.14261889     -13.30315233       1.70337112
H       -1.71543209     -15.20606956       2.35570128
C        0.90538904     -15.27075677       2.52805892
C        1.54265842     -16.23913055       2.86058855
Br       2.57306912     -17.80490905       3.39826083
