169
Properties=species:S:1:pos:R:3 pbc="F F F"
C        0.00000000       0.00000000       0.00000000
N       -2.95185914       8.16794577      -8.46653166
C       -2.49360312       7.44739665      -7.69475812
C       -1.93382694       6.56722005      -6.75200906
C       -1.26420266       5.44712280      -7.11788615
N       -1.08185733       5.00855276      -8.41000422
O       -0.67785698       4.60016404      -6.16629821
C       -0.67335041       5.00158949      -4.85600781
C       -1.29079845       6.08709339      -4.39293590
C       -1.09973716       6.25611354      -2.92507026
C       -0.16818782       5.08760644      -2.55193199
C       -0.02312296       4.25646219      -3.81200708
C        0.54979163       3.05043070      -3.93137748
C        1.13304089       2.34209146      -2.79172518
C        2.48730714       2.50205864      -2.48015649
C        3.03539976       1.85060806      -1.37295641
C        2.23190153       1.03933666      -0.57124546
C        0.88211899       0.88211899      -0.88211899
C        0.32814894       1.52764195      -1.98712789
C       -2.10015906       6.96713562      -5.28482300
H       -1.69238245       7.98271573      -5.17605888
C       -3.56928595       6.97284263      -4.86244572
C       -4.19469892       8.17560396      -4.49637937
C       -5.53778388       8.19004034      -4.11214696
C       -6.27403852       7.00599030      -4.08845602
C       -5.66378289       5.80879337      -4.45161709
Br      -6.65684602       4.20056316      -4.42113865
C       -4.32406807       5.78522227      -4.83775355
H       -0.91194358       4.00662870      -8.45070041
H       -1.77696975       5.32538653      -9.08151384
H       -0.63496831       7.21854745      -2.68761594
H       -2.04952764       6.18143689      -2.38546542
H       -0.59587132       4.51110868      -1.72469278
H        0.80841265       5.47517588      -2.23764320
H        0.58587637       2.53097374      -4.88500394
H        3.12036928       3.13869145      -3.09444523
H        4.08813653       1.97883009      -1.13393432
H        2.66472631       0.53810931       0.29049380
H       -0.72700650       1.40631844      -2.21970493
H       -3.64379081       9.11442240      -4.51136935
H       -6.01256130       9.12806964      -3.83389210
H       -7.31837208       7.02837227      -3.78939498
H       -3.86355160       4.83928155      -5.11676140
N       -9.23270474      -7.32237116       2.87245761
C       -8.39727231      -6.67207814       2.42079880
C       -7.37676164      -5.87772190       1.86908137
C       -6.24273804      -6.41296596       1.35489770
N       -5.92405388      -7.75213193       1.33948615
O       -5.25174698      -5.60949382       0.77263553
C       -5.51440267      -4.27496258       0.60511836
C       -6.59933846      -3.65203265       1.06214026
C       -6.59830681      -2.20220501       0.71906518
C       -5.31613261      -2.03694082      -0.11827719
C       -4.60883600      -3.37705475      -0.05945556
C       -3.37339987      -3.66623372      -0.49196621
C       -2.50067831      -2.66330066      -1.10287856
C       -2.50118256      -2.47885355      -2.48948615
C       -1.69140159      -1.49916114      -3.06840149
C       -0.88038855      -0.69815585      -2.26393924
C       -0.88211899      -0.88211899      -0.88211899
C       -1.68635116      -1.85958936      -0.29697827
C       -7.63770655      -4.37041348       1.85632047
H       -8.59441360      -4.21010344       1.33812488
C       -7.73663286      -3.80079215       3.27142261
C       -8.94839289      -3.26221073       3.73331921
C       -9.04815787      -2.74249117       5.02624562
C       -7.94155762      -2.75357659       5.87472642
C       -6.73641978      -3.28720758       5.42699978
Br      -5.23291338      -3.30466102       6.57271860
C       -6.62811695      -3.80931645       4.13852566
H       -4.92016136      -7.90305142       1.27782726
H       -6.37139827      -8.31636205       2.05782970
H       -7.48387160      -1.92523691       0.13791343
H       -6.55729555      -1.57726356       1.61718444
H       -4.70006061      -1.22739175       0.28752222
H       -5.57688834      -1.78987161      -1.15447179
H       -2.95346909      -4.66268116      -0.38570380
H       -3.13585415      -3.09299116      -3.12466065
H       -1.69595395      -1.35856615      -4.14638084
H       -0.25529554       0.06424233      -2.72128861
H       -1.68819427      -1.99291164       0.78208905
H       -9.82846873      -3.24629106       3.09275885
H       -9.99274109      -2.33095486       5.37429551
H       -8.03015008      -2.34813102       6.87888592
H       -5.67710207      -4.22087057       3.80548129
N        1.82098501      11.18794228       4.31566101
C        1.47749168      10.13999616       3.98604717
C        1.05790226       8.85989239       3.58341203
C        0.97165840       7.82188409       4.45058061
N        1.30964291       7.86184587       5.78449669
O        0.51377282       6.56116122       4.04121687
C        0.01825429       6.43247462       2.77002657
C        0.04537672       7.39000147       1.84460608
C       -0.57156656       6.94700651       0.56287357
C       -1.06668597       5.52361427       0.88105037
C       -0.55846161       5.21157082       2.27531388
C       -0.59117986       4.03097688       2.90944306
C       -1.14685133       2.82495953       2.29504668
C       -2.49464152       2.49780642       2.47707433
C       -3.03155753       1.36371022       1.86369647
C       -2.22471275       0.55394591       1.06382499
C       -0.88211899       0.88211899       0.88211899
C       -0.33834248       2.01165829       1.49291801
C        0.67415673       8.71644972       2.10950656
H       -0.09387900       9.47463705       1.89787610
C        1.87092791       8.94948729       1.18744302
C        1.88710176      10.04953441       0.31485176
C        2.97828212      10.27150196      -0.52881642
C        4.06682207       9.40004828      -0.51281842
C        4.06133656       8.30785035       0.35011379
Br       5.53408995       7.12301341       0.37593234
C        2.97704131       8.07932822       1.19662083
H        1.53993027       6.93947155       6.14584424
H        1.98753001       8.57480763       6.04265299
H       -1.40438526       7.59525179       0.27155804
H        0.16143265       6.92910258      -0.25029526
H       -0.68842723       4.81531410       0.13618881
H       -2.16287998       5.49712332       0.86122844
H       -0.18144275       3.91174802       3.90866328
H       -3.13393803       3.12709797       3.09246995
H       -4.07986333       1.11402514       2.00701247
H       -2.65030818      -0.32519055       0.58722419
H        0.70787774       2.26573765       1.34115696
H        1.05230574      10.74769113       0.28661554
H        2.98122138      11.12870979      -1.19808797
H        4.91107430       9.58247622      -1.17200673
H        2.98993962       7.21907928       1.86335170
N        6.42187847      -9.93557706      -2.67483724
C        5.88902562      -9.00847765      -2.24895163
C        5.23812676      -7.87599247      -1.72871707
C        4.19553887      -7.97353291      -0.86826549
N        3.62264633      -9.14729064      -0.43323731
O        3.58241721      -6.83396531      -0.32777725
C        4.15002283      -5.61192339      -0.57769933
C        5.17963837      -5.40697810      -1.39738563
C        5.56920499      -3.97022207      -1.45798042
C        4.61745346      -3.30193424      -0.44803708
C        3.65867903      -4.38901644      -0.00234915
C        2.54980628      -4.24481833       0.73697520
C        2.09689712      -2.94278003       1.22718037
C        2.50270060      -2.48256894       2.48425273
C        2.09579672      -1.22570250       2.93746501
C        1.28444982      -0.42276151       2.13527232
C        0.88211899      -0.88211899       0.88211899
C        1.28260725      -2.13670990       0.42360163
C        5.79885204      -6.52275032      -2.16980281
H        6.87032377      -6.51800002      -1.92193164
C        5.63502337      -6.30493844      -3.67395941
C        6.76536642      -6.21403291      -4.50211492
C        6.62436748      -6.01819055      -5.87815461
C        5.35509278      -5.91096509      -6.44565009
C        4.22825782      -6.00189058      -5.63352083
Br       2.50511288      -5.85699425      -6.39725133
C        4.35954218      -6.19864269      -4.25927712
H        2.66223003      -9.01084233      -0.12768683
H        3.73713152      -9.94567981      -1.05288072
H        6.61445481      -3.82374031      -1.16700004
H        5.42191424      -3.55638440      -2.46092397
H        4.09705846      -2.46016535      -0.91729368
H        5.18853091      -2.92409218       0.40860866
H        1.92017067      -5.09411358       0.98756980
H        3.14174982      -3.09779597       3.11396016
H        2.41461744      -0.87166161       3.91462189
H        0.97439162       0.55540184       2.49335203
H        0.97102549      -2.48581928      -0.55782791
H        7.76721923      -6.29969462      -4.08491292
H        7.50694954      -5.95266009      -6.51020919
H        5.25642126      -5.76010753      -7.51713361
H        3.46692479      -6.26558838      -3.64002182
