145
Properties=species:S:1:pos:R:3 pbc="F F F"
C        0.00000000       0.00000000       0.00000000
C        0.88118193       0.88118193      -0.88118193
C        0.53443969       2.21171240      -1.09446203
C        1.34263309       3.01354366      -1.90575135
C        2.50210345       2.50098455      -2.51343912
C        2.83324117       1.15791781      -2.28024664
C        2.02712501       0.35067303      -1.46865522
C        3.33774597       3.34273345      -3.36695294
C        4.51974269       3.17004650      -4.05978108
C        4.80000217       4.40120689      -4.70886235
C        3.77386050       5.25993870      -4.37471228
C        3.48540492       6.62588775      -4.69898696
N        4.24171252       7.31374529      -5.49944040
N        3.89993289       8.63531397      -5.68715437
C        3.48270613       9.47287640      -4.65702091
O        3.33810738       9.13661962      -3.48192626
C        3.24078817      10.89614863      -5.01116372
C        2.88849791      11.27351213      -6.31477455
C        2.65576910      12.61993133      -6.60505630
Br       2.17327140      13.12519870      -8.36219561
C        2.76564308      13.59492097      -5.61449503
C        3.09752684      13.22145248      -4.31288374
C        3.32097227      11.87968165      -4.01166699
O        3.61309517      11.59813523      -2.70360992
O        2.88638925       4.61649350      -3.56394036
H       -0.35618593       2.63611647      -0.63985420
H        1.05402469       4.05195257      -2.05880996
H        3.72128385       0.71931385      -2.72838447
H        2.30263016      -0.68804692      -1.30413640
H        5.11621732       2.26887266      -4.09579357
H        5.64514673       4.64129442      -5.33747044
H        2.56710046       7.03843343      -4.24533747
H        4.35242939       9.05537118      -6.49430614
H        2.76161564      10.53251857      -7.09904532
H        2.58356370      14.64262844      -5.83982124
H        3.17146049      13.97174238      -3.52915098
H        3.57904255      10.62129381      -2.58411946
C       -0.88118193      -0.88118193      -0.88118193
C       -2.26317039      -0.72149068      -0.85595305
C       -3.06616208      -1.53390226      -1.66186375
C       -2.50399098      -2.51303188      -2.49950425
C       -1.10817563      -2.65242724      -2.51080275
C       -0.29957223      -1.84137243      -1.70550860
C       -3.35003872      -3.36430080      -3.33309284
C       -3.12621984      -4.36043179      -4.26291865
C       -4.39988241      -4.79518766      -4.71500134
C       -5.33271175      -4.03839219      -4.03740754
C       -6.76508766      -3.99139977      -4.05379220
N       -7.46824444      -4.80332043      -4.78333334
N       -8.83412330      -4.62260935      -4.76566858
C       -9.44221852      -3.37126403      -4.79912089
O       -8.84909219      -2.29293862      -4.81462245
C      -10.92698445      -3.35287709      -4.86823897
C      -11.69348537      -4.41511021      -4.36818901
C      -13.08724871      -4.35447845      -4.43902957
Br     -14.11878155      -5.78496768      -3.75691649
C      -13.72799811      -3.24938151      -4.99767946
C      -12.96984924      -2.18294331      -5.47907051
C      -11.57952479      -2.22989527      -5.40290085
O      -10.91457167      -1.12832607      -5.87194257
O       -4.69551232      -3.17362446      -3.19768632
H       -2.72712547       0.02536614      -0.21802541
H       -4.14491740      -1.39195397      -1.62791585
H       -0.62966211      -3.39539775      -3.14392231
H        0.77978416      -1.96916319      -1.72934061
H       -2.16340992      -4.73285784      -4.58461579
H       -4.61763774      -5.55915414      -5.44711972
H       -7.22373471      -3.24067483      -3.38646183
H       -9.34809780      -5.41649732      -5.13751159
H      -11.22351458      -5.27340188      -3.89626308
H      -14.81260226      -3.20142243      -5.05198869
H      -13.45951879      -1.30951608      -5.90331897
H       -9.96836505      -1.20563163      -5.61045914
C       -0.88118193       0.88118193       0.88118193
C       -0.62809355       0.96575309       2.24676748
C       -1.44066894       1.77102021       3.05023894
C       -2.51266696       2.49892163       2.50493852
C       -2.74548315       2.40085292       1.12506956
C       -1.93467721       1.59570667       0.31606938
C       -3.36301817       3.33222123       3.35219295
C       -4.43592798       4.17496804       3.13867425
C       -4.81586121       4.68706718       4.40714300
C       -3.95182258       4.13013815       5.32655075
C       -3.81050469       4.25220081       6.74757413
N       -4.62379229       4.97434635       7.45675956
N       -4.35140371       5.06669589       8.80430164
C       -3.06783614       5.22717871       9.31758860
O       -2.03544744       5.27217798       8.64902783
C       -2.95526275       5.40356265      10.78927511
C       -3.92533663       4.88984218      11.66160578
C       -3.77692674       5.06424404      13.03958595
Br      -5.08272996       4.36371293      14.21422283
C       -2.67434719       5.73996341      13.56074848
C       -1.69819356       6.23599410      12.69767540
C       -1.83237785       6.05744935      11.32249370
O       -0.81414927       6.55021453      10.55047652
O       -3.07364086       3.30659958       4.68658266
H        0.19187778       0.41404474       2.69761779
H       -1.22487852       1.82400473       4.11590397
H       -3.56221536       2.94699306       0.65977375
H       -2.13569366       1.53355802      -0.75053204
H       -4.89395329       4.40125207       2.18567819
H       -5.61404925       5.38020787       4.62965449
H       -2.98493214       3.67110942       7.19482981
H       -5.13376266       5.42051612       9.34782792
H       -4.77709813       4.32915819      11.28692322
H       -2.55802574       5.87491819      14.63306946
H       -0.82663721       6.75165273      13.09406391
H       -0.93558485       6.21703590       9.63183507
C        0.88118193      -0.88118193       0.88118193
C        2.24147143      -0.60941115       0.98973153
C        3.04505188      -1.42201124       1.79486497
C        2.50514145      -2.51257587       2.49880979
C        1.13046805      -2.76408744       2.37685014
C        0.32138461      -1.95333916       1.57172950
C        3.35264622      -3.36271905       3.33206708
C        3.14277737      -4.45104401       4.15574890
C        4.40911767      -4.81993168       4.68102206
C        5.32364081      -3.93434420       4.15052647
C        6.74046795      -3.77406499       4.29574669
N        7.45101049      -4.58752251       5.01636521
N        8.79285977      -4.29683550       5.13270597
C        9.28461278      -3.00841660       5.31957407
O        8.60019834      -1.98670988       5.36974503
C       10.75172380      -2.87694102       5.51943569
C       11.64580059      -3.82639826       5.00458574
C       13.01872219      -3.66043652       5.20159802
Br      14.22276320      -4.93834802       4.49955449
C       13.51349457      -2.56050686       5.90105765
C       12.62884201      -1.60457280       6.39844825
C       11.25856755      -1.75620951       6.19754385
O       10.46437369      -0.75682794       6.69363869
O        4.68282083      -3.05348664       3.33051564
H        2.68811745       0.22518069       0.45684798
H        4.10650280      -1.19145223       1.86683219
H        0.66941307      -3.59556963       2.90399947
H       -0.74108786      -2.16900496       1.49080254
H        2.19348137      -4.92628523       4.36111695
H        4.63329247      -5.62498753       5.36563160
H        7.18386710      -2.93348917       3.73351509
H        9.34271244      -5.07632363       5.48307063
H       11.29206513      -4.67512907       4.42598533
H       14.58187785      -2.43051571       6.05361983
H       13.00464381      -0.73506459       6.93264545
H        9.55261476      -0.88673660       6.34510445
