198
Properties=species:S:1:pos:R:3 pbc="F F F"
C        1.79133174       1.79133174      -1.79133174
C        2.03036282       1.42692570      -3.11612528
C        2.82117468       2.24132876      -3.93476656
C        3.36247132       3.42879968      -3.42754905
C        3.13466348       3.77109139      -2.08553337
C        2.34728309       2.95597184      -1.26876608
C        4.14836019       4.37679024      -4.27012739
O        4.80463681       5.25989544      -3.71639856
C        4.04646647       4.27034322      -5.78988470
O        4.14578061       5.58671174      -6.34720601
C        5.38717248       6.05001340      -6.58457549
O        6.38086682       5.34540011      -6.68849523
C        5.42416618       7.54624152      -6.67839519
C        6.68282154       8.05936623      -7.03453514
C        6.88406023       9.42735968      -7.06592492
N        5.88137797      10.28065972      -6.76238421
C        4.67503589       9.81384703      -6.42219186
C        3.71952464      10.76902536      -6.09882565
C        2.41696243      10.42995237      -5.73850490
C        2.06076346       9.09597756      -5.71055318
Br       0.29612224       8.59705192      -5.25441583
C        3.00451605       8.11625944      -6.01899844
C        4.35025857       8.44117455      -6.37281602
C        8.17390955      10.06136102      -7.41737610
C        9.41209568       9.43277385      -7.18823811
C       10.61974382      10.05699314      -7.52254858
C       10.61755888      11.32742968      -8.09055932
C        9.40970573      11.97606979      -8.32235058
C        8.20556475      11.34948681      -7.98787332
H        1.60167665       0.51320522      -3.52164038
H        2.99572372       1.92274907      -4.95843339
H        3.55689835       4.68634526      -1.67200193
H        2.16997272       3.24417468      -0.23543732
H        3.05978061       3.90138609      -6.08133562
H        4.81088564       3.58907371      -6.17626502
H        7.49546233       7.38263944      -7.28336466
H        4.00298170      11.82002155      -6.12315547
H        1.70386970      11.21044659      -5.48896496
H        2.66171080       7.09032861      -5.98155695
H        9.45991870       8.45074905      -6.72253879
H       11.56230981       9.55087108      -7.32953696
H       11.55515839      11.81369387      -8.34530206
H        9.39825475      12.97135472      -8.75864497
H        7.27287196      11.88040744      -8.17492387
C       -1.79133174      -1.79133174      -1.79133174
C       -2.37579152      -1.25788155      -2.93974072
C       -3.16849227      -2.06636148      -3.76241625
C       -3.36489807      -3.41449427      -3.43942771
C       -2.79137570      -3.93225994      -2.26765260
C       -2.00250494      -3.12351014      -1.44600592
C       -4.13429795      -4.34577562      -4.31520425
O       -4.48508916      -5.43541444      -3.86042720
C       -4.38841929      -3.95033954      -5.76793555
O       -4.37102802      -5.13548103      -6.57318931
C       -5.53125072      -5.80950243      -6.68100822
O       -6.63289459      -5.33270453      -6.44916303
C       -5.32047931      -7.23618172      -7.09214186
C       -6.51439333      -7.94059962      -7.32172996
C       -6.47037177      -9.29137402      -7.61559904
N       -5.28986740      -9.94443252      -7.69012198
C       -4.14137135      -9.29305576      -7.47664767
C       -2.98360775     -10.05771192      -7.54605597
C       -1.71562181      -9.51138715      -7.35841074
C       -1.60567942      -8.15869100      -7.10292378
Br       0.09805348      -7.37489556      -6.87074791
C       -2.75327084      -7.37057936      -7.01592374
C       -4.06377913      -7.91394049      -7.18652952
C       -7.67162776     -10.11941559      -7.86160332
C       -8.92129913      -9.82849243      -7.28331608
C      -10.04169080     -10.63220161      -7.52539313
C       -9.93746521     -11.74914303      -8.34893965
C       -8.71389706     -12.06547358      -8.92875547
C       -7.59725470     -11.26029489      -8.68537528
H       -2.21631889      -0.21515457      -3.20504879
H       -3.61696555      -1.61644494      -4.64349570
H       -2.94263039      -4.97647428      -1.99614088
H       -1.55468327      -3.54540477      -0.54949667
H       -3.57153988      -3.32831175      -6.14265069
H       -5.32783028      -3.39534632      -5.85304777
H       -7.46912358      -7.42505471      -7.26728813
H       -3.07343776     -11.12366410      -7.74905686
H       -0.83772679     -10.14840588      -7.41714857
H       -2.59916749      -6.31801053      -6.81641834
H       -9.04028477      -8.97997170      -6.61295007
H      -10.99385371     -10.38756304      -7.06130109
H      -10.80597573     -12.37555193      -8.53262666
H       -8.62099713     -12.93992490      -9.56733241
H       -6.64883518     -11.53194790      -9.14742020
C       -1.79133174       1.79133174       1.79133174
C       -2.63153033       2.73728120       1.20460226
C       -3.45658452       3.53434364       2.00634184
C       -3.44792734       3.37369632       3.39719638
C       -2.57950388       2.43538415       3.97640021
C       -1.75460129       1.64226262       3.17515709
C       -4.35856142       4.13766266       4.29905374
O       -4.12998379       4.14155178       5.50939524
C       -5.58694095       4.81910763       3.70064580
O       -6.64944760       4.76944375       4.66080700
C       -6.69066749       5.76313828       5.56795560
O       -6.13433832       6.84385269       5.43657114
C       -7.47799194       5.38411414       6.78669682
C       -7.63558110       6.43412459       7.70701721
C       -8.25986483       6.19891961       8.91856039
N       -8.72659804       4.96938184       9.22844202
C       -8.58854763       3.95597286       8.36655429
C       -9.07378223       2.72467662       8.78891679
C       -9.01002703       1.58368379       7.99170888
C       -8.45205990       1.68288244       6.73235187
Br      -8.37290668       0.16458332       5.61009999
C       -7.94630525       2.90477898       6.28868971
C       -7.98476883       4.08241833       7.09706198
C       -8.46240874       7.23556952       9.95466841
C       -7.59478020       8.33347498      10.10485245
C       -7.80350173       9.29728959      11.09849422
C       -8.88348599       9.18333834      11.96872355
C       -9.75374680       8.10554259      11.84883671
C       -9.54268274       7.14524756      10.85499457
H       -2.65440381       2.85823219       0.12388625
H       -4.09104661       4.26818221       1.51767736
H       -2.55274335       2.30480088       5.05770131
H       -1.09839171       0.91072684       3.64046617
H       -5.94833399       4.26102544       2.83314289
H       -5.34362876       5.84054066       3.39205494
H       -7.26678429       7.42747311       7.46720902
H       -9.51442610       2.64995038       9.78178225
H       -9.39802666       0.64025685       8.36499774
H       -7.52500850       2.91680131       5.29178655
H       -6.72406575       8.44662012       9.46252067
H       -7.11444000      10.13249802      11.19577982
H       -9.04236721       9.92881420      12.74297291
H      -10.59564157       8.00407508      12.52853779
H      -10.23580402       6.30774170      10.78465755
C        1.79133174      -1.79133174       1.79133174
C        2.64931049      -2.72053284       1.20357046
C        3.47430666      -3.51732566       2.00563768
C        3.44764485      -3.37311148       3.39806372
C        2.56162186      -2.45178554       3.97788084
C        1.73681774      -1.65893715       3.17626612
C        4.35666065      -4.13699483       4.30162234
O        4.11413024      -4.15772695       5.50907362
C        5.59980101      -4.79709091       3.70980245
O        6.65045126      -4.74637800       4.68286910
C        6.69280381      -5.75009803       5.57885953
O        6.15074704      -6.83557332       5.42844179
C        7.46144948      -5.37629180       6.81106162
C        7.62066324      -6.43512569       7.72093398
C        8.22806039      -6.20692451       8.94235992
N        8.67671908      -4.97577791       9.27192491
C        8.53679333      -3.95399929       8.42028216
C        9.00262646      -2.72219911       8.86255008
C        8.93473989      -1.57275132       8.07792849
C        8.39260956      -1.66363523       6.81104941
Br       8.30866997      -0.13329906       5.70562095
C        7.90639583      -2.88602507       6.34735304
C        7.94929457      -4.07253848       7.14241609
C        8.43072399      -7.25323646       9.96868623
C        7.57434801      -8.36281088      10.09594874
C        7.78282646      -9.33572780      11.08073128
C        8.85124045      -9.21947902      11.96482842
C        9.71013297      -8.13033637      11.86765675
C        9.49935591      -7.16096334      10.88260562
H        2.68612621      -2.82852839       0.12186764
H        4.12295269      -4.23797950       1.51597399
H        2.52079987      -2.33421094       5.06023473
H        1.06672489      -0.94056397       3.64229585
H        5.96465565      -4.22472212       2.85312455
H        5.37207752      -5.81758645       3.38656040
H        7.26634555      -7.42980170       7.46531918
H        9.43082546      -2.65401899       9.86131428
H        9.30729602      -0.62933288       8.46665235
H        7.49685277      -2.89123819       5.34550540
H        6.71252430      -8.47850056       9.44218168
H        7.10252547     -10.17995072      11.16024165
H        9.00986790      -9.97209172      12.73219470
H       10.54284472      -8.02709502      12.55831470
H       10.18337659      -6.31471229      10.83011439
C       -0.00445707       0.01189536      -1.78238275
H       -0.66409135       0.67374010      -2.43557963
H        0.65740317      -0.63156657      -2.45157240
C       -0.90989263      -0.90692880      -0.91072765
C        0.90977584       0.90977584      -0.90977584
C       -0.00465871       1.77757030       0.00794375
H       -0.66225468       2.44313916      -0.64384735
H        0.64322798       2.43503045       0.67728295
C       -1.78241447       0.00034974      -0.00472694
H       -2.45427497      -0.65498947       0.64260836
H       -2.43311707       0.67328779      -0.65473579
C       -0.91132561       0.90220522       0.91563759
C       -0.01476271      -0.02253852       1.78660255
H       -0.67934791      -0.69751639       2.42135241
H        0.63392994       0.61504881       2.47327442
C        0.01484550      -1.77751727      -0.01636693
H        0.67870853      -2.42144646      -0.68295456
H       -0.62264859      -2.45592969       0.64226336
C        1.78714474       0.01002794       0.00389507
H        2.44202412       0.67113390       0.66197326
H        2.45385902      -0.65136977      -0.64189061
C        0.91606151      -0.90478549       0.90901405
