181
Properties=species:S:1:pos:R:3 pbc="F F F"
C        0.00000000       0.00000000       0.00000000
O        7.96971305       2.53955071      -9.13673494
C        7.04511105       2.60713765      -8.32545533
N        7.16900831       3.37519928      -7.18669753
N        6.09768376       3.66634396      -6.40621366
C        6.30873033       4.11765998      -5.20343131
C        7.66155872       4.19418147      -4.53813795
C        5.09298431       4.50422261      -4.39508664
C        4.63244228       3.39244770      -3.48006713
O        5.44248704       2.63867355      -2.95342327
N        3.26118934       3.38737813      -3.29320551
C        2.51020764       2.51116394      -2.48088980
C        3.05914208       1.44785479      -1.76208429
C        2.24850538       0.63336235      -0.96302080
C        0.88143591       0.88143591      -0.88143591
C        0.31646394       1.93100955      -1.59850861
C        1.12889525       2.74128442      -2.39883779
C        5.76206456       1.79002448      -8.46078758
O        4.70206907       2.53730462      -9.04905914
C        3.56668972       1.79895920      -9.27766193
C        3.04733220       0.89820141      -8.33973661
C        1.88484183       0.17721498      -8.61915079
C        1.22852618       0.37186814      -9.82949111
Br      -0.34256120      -0.60826089     -10.20967587
C        1.71522337       1.29201206     -10.75725911
C        2.88555394       2.02062745     -10.48625774
C        3.38928042       3.02284906     -11.48650508
H        8.04166139       3.87862301      -7.07312964
H        8.34843293       4.80014717      -5.13346501
H        8.06367949       3.18257624      -4.42817790
H        7.57526087       4.64359747      -3.54574405
H        4.29155111       4.78534806      -5.08786048
H        5.32773808       5.38116980      -3.78290419
H        2.72791788       4.09752289      -3.78035195
H        4.11942751       1.21792486      -1.79865065
H        2.69921422      -0.18691773      -0.41005114
H       -0.75067900       2.13040419      -1.54116329
H        0.66477782       3.55667425      -2.94738882
H        5.49901013       1.43053641      -7.45938032
H        5.99810976       0.91535165      -9.08088690
H        3.51675924       0.75314657      -7.37211076
H        1.50081719      -0.52451295      -7.88345581
H        1.18477224       1.44543084     -11.69415765
H        4.41910425       2.79116925     -11.77564894
H        3.34651557       4.03135646     -11.06278868
H        2.78232118       3.01815246     -12.39829106
O      -10.14239956      -6.39771909      -3.10588006
C       -9.13066707      -5.69628128      -3.15075568
N       -7.93010102      -6.22721949      -3.57358462
N       -6.86744086      -5.43581278      -3.86698774
C       -5.68982131      -5.98366427      -3.95633604
C       -5.37813085      -7.41676084      -3.59898645
C       -4.54628545      -5.08428724      -4.36172087
C       -3.78227281      -4.55184056      -3.17084374
O       -3.63079132      -5.23735299      -2.16643955
N       -3.26681124      -3.28611821      -3.38884353
C       -2.48220146      -2.51619603      -2.50386389
C       -2.14453282      -2.91509428      -1.20945405
C       -1.34563396      -2.10123339      -0.39802118
C       -0.88143591      -0.88143591      -0.88143591
C       -1.21618857      -0.46426304      -2.16553048
C       -2.01755971      -1.27853533      -2.97292242
C       -9.10205380      -4.25020155      -2.66062127
O       -9.25146547      -3.31382362      -3.72314374
C       -9.33242188      -2.00904230      -3.30184666
C       -8.49072856      -1.47747239      -2.31706928
C       -8.60978693      -0.14129115      -1.93012951
C       -9.55771727       0.67077495      -2.54294311
Br      -9.72217637       2.47852172      -2.01519914
C      -10.37789150       0.16340765      -3.55001069
C      -10.26725808      -1.18044920      -3.94473185
C      -11.14431417      -1.71005539      -5.04426501
H       -7.93940631      -7.20203838      -3.85196935
H       -5.99401297      -8.10158469      -4.18644744
H       -5.57171709      -7.56969163      -2.53302490
H       -4.32697169      -7.64072762      -3.79690308
H       -4.95026018      -4.25745326      -4.95704622
H       -3.85142213      -5.64403453      -4.99635541
H       -3.45782883      -2.86018346      -4.28778043
H       -2.48657839      -3.85711587      -0.79230876
H       -1.09334661      -2.43450190       0.60550087
H       -0.85872133       0.48774101      -2.54990817
H       -2.26329748      -0.93220133      -3.97334208
H       -8.15732424      -4.10815387      -2.12344874
H       -9.92042508      -4.13618650      -1.93773672
H       -7.71714697      -2.07685601      -1.84801360
H       -7.95440617       0.25231640      -1.15767028
H      -11.10558319       0.81259763      -4.03137517
H      -11.71883004      -2.57318712      -4.69390528
H      -10.53382982      -2.00203943      -5.90479146
H      -11.86027554      -0.95409015      -5.38439900
O       -7.57029908       2.63014674       9.44555288
C       -6.69985730       2.70115536       8.57669137
N       -6.93592568       3.38970287       7.40527658
N       -5.93118040       3.69381788       6.54524310
C       -6.23840460       4.05780150       5.33361552
C       -7.62946939       4.01539193       4.74901682
C       -5.09719105       4.46361586       4.43148665
C       -4.62300588       3.32634495       3.55560628
O       -5.41442845       2.49633942       3.12381600
N       -3.26706304       3.38889010       3.28581984
C       -2.51195576       2.50936722       2.48093841
C       -3.03533234       1.37421550       1.85953332
C       -2.22379281       0.56044462       1.06065110
C       -0.88143591       0.88143591       0.88143591
C       -0.34133821       2.00371897       1.50092491
C       -1.15433508       2.81326119       2.30142118
C       -5.36356863       1.96915453       8.68015346
O       -4.31913068       2.81086368       9.15843847
C       -3.12942958       2.15454697       9.35933429
C       -2.61086478       1.22953513       8.44487031
C       -1.39228208       0.59518652       8.69373900
C       -0.68044172       0.90101048       9.84843324
Br       0.96695146       0.03814798      10.18765726
C       -1.16823294       1.84660080      10.74966080
C       -2.39460992       2.48861416      10.50921506
C       -2.90021373       3.51944385      11.47897698
H       -7.84283046       3.83410677       7.31647681
H       -8.31667048       4.61604402       5.34933061
H       -7.97462588       2.97746468       4.72234306
H       -7.62815994       4.40748779       3.72895466
H       -4.27586390       4.83231051       5.05658524
H       -5.42003701       5.28648496       3.78529009
H       -2.75104213       4.15705382       3.69769676
H       -4.07569481       1.08623025       1.97407796
H       -2.65459979      -0.31673293       0.58448078
H        0.70652781       2.26040114       1.36701514
H       -0.71012246       3.68606827       2.77265015
H       -5.13716759       1.56484338       7.68691589
H       -5.50953893       1.12190332       9.36290607
H       -3.12552365       0.99875121       7.51774170
H       -1.00909105      -0.12692875       7.97759775
H       -0.59504833       2.08735640      11.64195600
H       -3.89555900       3.24692034      11.84344311
H       -2.94370875       4.50092972      10.99602224
H       -2.24256718       3.60551660      12.35068091
O        8.95091994      -8.18780756       2.50727120
C        8.17322706      -7.23445182       2.57002515
N        7.05776863      -7.29427768       3.37885882
N        6.32325473      -6.18806346       3.65892318
C        5.13021687      -6.34317431       4.15643043
C        4.42381202      -7.66937002       4.30069609
C        4.37586134      -5.08861786       4.52781435
C        3.43922174      -4.63403339       3.43170198
O        2.86093536      -5.45004768       2.72360082
N        3.29745747      -3.25813052       3.38618499
C        2.48095507      -2.50918003       2.51212629
C        1.70878454      -3.06801809       1.49227853
C        0.90957710      -2.25790133       0.67741009
C        0.88143591      -0.88143591       0.88143591
C        1.65193585      -0.30697073       1.88707552
C        2.45220528      -1.11906169       2.69775048
C        8.32280566      -5.98428913       1.70578183
O        8.97064383      -4.92091093       2.39687806
C        9.21121266      -3.81883115       1.61326704
C        8.26079571      -3.29778439       0.72669013
C        8.55359986      -2.16977996      -0.04217222
C        9.79076850      -1.54892740       0.09018954
Br      10.18885214      -0.02472246      -0.95472081
C       10.73277146      -2.03636815       0.99535492
C       10.44837229      -3.17223918       1.77182767
C       11.46500288      -3.67645581       2.75717587
H        6.93275719      -8.14555338       3.91510348
H        5.01649225      -8.35579231       4.90976056
H        4.26638766      -8.10054733       3.30749864
H        3.45063391      -7.53468002       4.77928846
H        5.10374898      -4.30238211       4.75862857
H        3.78644659      -5.27349063       5.43187484
H        3.82571306      -2.71867177       4.06140789
H        1.70265526      -4.13591650       1.29743125
H        0.31454269      -2.71627232      -0.10846737
H        1.63649720       0.76748016       2.05187144
H        3.04310046      -0.64730767       3.47843276
H        7.31894705      -5.69931524       1.37066456
H        8.90473480      -6.26988332       0.81973020
H        7.27389687      -3.73857455       0.62954515
H        7.80750280      -1.78424603      -0.73198879
H       11.69126685      -1.53330319       1.09979070
H       11.71211030      -4.72256646       2.55124568
H       11.07743330      -3.58620083       3.77702658
H       12.39555533      -3.10131078       2.70189858
