173
Properties=species:S:1:pos:R:3 pbc="F F F"
C        0.00000000       0.00000000       0.00000000
O        6.56749690       4.86494672      -3.62208542
C        5.41851257       4.59785400      -3.94944850
C        4.54014679       3.79815664      -3.06723240
C        3.32065825       3.34073935      -3.39221492
C        2.50382057       2.50491998      -2.49758333
C        3.07248638       1.55218591      -1.63864518
C        2.26581987       0.74767181      -0.82794728
C        0.88152387       0.88152387      -0.88152387
C        0.29742708       1.80890889      -1.74070258
C        1.10722353       2.61372004      -2.54960988
O        4.77517551       4.94899640      -5.12313828
C        5.46964248       5.66938402      -6.11521675
C        5.19146680       5.31277946      -7.43577475
C        5.80933125       6.00012860      -8.48192169
C        6.69394123       7.04667194      -8.20064699
C        6.95644377       7.41203458      -6.87635913
C        6.33162610       6.72885728      -5.82908921
C        7.34976652       7.79562397      -9.29180873
N        7.13455748       7.51299265     -10.53769089
C        7.79464887       8.29698206     -11.49404707
C        9.18707336       8.27546250     -11.63036666
C        9.81584519       9.03998133     -12.61731478
C        9.04675606       9.81729805     -13.48156397
C        7.65821902       9.83582711     -13.36829230
C        7.03701703       9.07204031     -12.37647272
H        4.99230415       3.58552681      -2.10389535
H        2.87289498       3.57259622      -4.35587815
H        4.14998248       1.41038253      -1.59566315
H        2.72838886       0.01857861      -0.16763433
H       -0.78339689       1.91205171      -1.79174236
H        0.63246099       3.33070743      -3.21651573
H        4.49956366       4.50417879      -7.65355674
H        5.59718721       5.72052288      -9.51151536
H        7.63909329       8.22573910      -6.64598277
H        6.53087126       7.03158206      -4.80490960
H        8.02874356       8.61592838      -8.99149202
H        9.78452319       7.65076104     -10.97230720
H       10.89811768       9.01253277     -12.70851580
H        7.05121875      10.42938034     -14.04629125
H        5.95342371       9.07170957     -12.29204555
C        9.69099921      10.59789972     -14.50587436
C       10.23055285      11.25165362     -15.36373432
Br      11.10296546      12.30871839     -16.75082131
O       -3.68465790      -4.76148114      -6.60839000
C       -4.00331616      -4.50878210      -5.45371680
C       -3.18547032      -3.60264646      -4.61741904
C       -3.37378213      -3.37121856      -3.30861183
C       -2.50145481      -2.49851836      -2.50635071
C       -1.11956150      -2.41050731      -2.73324866
C       -0.31251176      -1.59996088      -1.92896634
C       -0.88152387      -0.88152387      -0.88152387
C       -2.24824352      -0.96967378      -0.62912125
C       -3.05361623      -1.78032950      -1.43660772
O       -5.09403929      -4.99711251      -4.75615839
C       -5.96367880      -5.91995684      -5.37060761
C       -6.45352034      -6.93696840      -4.54953226
C       -7.34904633      -7.87337409      -5.06896112
C       -7.75681423      -7.78056354      -6.40388238
C       -7.27691870      -6.74969657      -7.21822221
C       -6.38630895      -5.80747670      -6.69578695
C       -8.71275363      -8.75311001      -6.97133557
N       -9.20282061      -9.72024318      -6.26217723
C      -10.11525007     -10.57686679      -6.89356113
C       -9.73158599     -11.41515680      -7.94615972
C      -10.65426803     -12.28594165      -8.53293162
C      -11.96246471     -12.32917705      -8.05397631
C      -12.35450170     -11.51216216      -6.99567457
C      -11.42749359     -10.64120752      -6.41682894
H       -2.37412894      -3.13868696      -5.16891041
H       -4.19919292      -3.83168024      -2.77049619
H       -0.64609932      -2.98051658      -3.52941227
H        0.75516200      -1.54445174      -2.12531207
H       -2.69621152      -0.41648314       0.19229748
H       -4.11892343      -1.83854757      -1.22221315
H       -6.14134498      -7.00466910      -3.51128511
H       -7.72821969      -8.66925908      -4.43174669
H       -7.58951556      -6.66557756      -8.25572202
H       -6.03237239      -5.00193326      -7.33305728
H       -8.99542368      -8.60942726      -8.03131302
H       -8.70567897     -11.39870302      -8.30320945
H      -10.33987781     -12.92915113      -9.35013731
H      -13.36901041     -11.54928579      -6.60859415
H      -11.72373998     -10.01142092      -5.58201793
C      -12.91247373     -13.23263841      -8.64966115
C      -13.70810629     -13.98928730      -9.14854721
Br     -14.99457684     -15.21272455      -9.95520377
O       -6.43343739       3.48335249       5.13773917
C       -5.37032877       3.89958498       4.69590132
C       -4.54478802       3.07203542       3.78871239
C       -3.30997212       3.38115627       3.36248413
C       -2.50661915       2.50047947       2.49922526
C       -2.55417388       1.10226388       2.60687971
C       -1.75026086       0.29441547       1.79676264
C       -0.88152387       0.88152387       0.88152387
C       -0.80681822       2.26785151       0.77236881
C       -1.61364466       3.07368527       1.58322352
O       -4.77311751       5.12100854       4.95318414
C       -5.38540220       6.02803978       5.84080127
C       -4.52313867       6.74414816       6.67273418
C       -5.04382323       7.68972743       7.55783088
C       -6.42300509       7.92026580       7.59798927
C       -7.28162282       7.21287418       6.75034048
C       -6.75933132       6.27170458       5.85853669
C       -6.99478991       8.92445735       8.51795195
N       -6.24856722       9.62081430       9.31585950
C       -6.89111800      10.55901837      10.13554162
C       -7.77569049      10.16978183      11.14743020
C       -8.37405584      11.12526348      11.97382198
C       -8.07390995      12.47480365      11.79690447
C       -7.18233429      12.87581784      10.80418630
C       -6.59120425      11.91511854       9.97920728
H       -5.03303604       2.14604718       3.50264309
H       -2.83719190       4.31893043       3.64524702
H       -3.20615424       0.61893229       3.33094164
H       -1.80622250      -0.78667950       1.89505880
H       -0.12456695       2.73135856       0.06447166
H       -1.53928725       4.15495470       1.48544219
H       -3.45166776       6.56913034       6.63650110
H       -4.37372895       8.24540635       8.21009017
H       -8.35436000       7.38618426       6.77027089
H       -7.43402309       5.73954604       5.19379381
H       -8.09266554       9.05764237       8.48585605
H       -7.99074889       9.11600047      11.30084207
H       -9.05948766      10.80578964      12.75388895
H       -6.93374884      13.92472625      10.66841526
H       -5.88441933      12.22063562       9.21212388
C       -8.68085316      13.46051380      12.65340634
C       -9.18916810      14.28604604      13.37072666
Br     -10.01107036      15.62086186      14.53057295
O        3.61816339      -6.56461325       4.87175240
C        3.94755828      -5.41700852       4.60124827
C        3.06552414      -4.53845231       3.80155938
C        3.39226098      -3.32077741       3.34057413
C        2.49758590      -2.50380361       2.50493436
C        1.63513660      -3.07267823       1.55550264
C        0.82444370      -2.26599743       0.75099784
C        0.88152387      -0.88152387       0.88152387
C        1.74419071      -0.29727739       1.80557044
C        2.55308650      -1.10708329       2.61038366
O        5.12353845      -4.77557921       4.94819254
C        6.11567528      -5.47067469       5.66789328
C        7.43604335      -5.19637763       5.30760002
C        8.48234871      -5.81507230       5.99396053
C        8.20145476      -6.69661209       7.04319330
C        6.87741327      -6.95520726       7.41221695
C        5.83001063      -6.32954719       6.73001477
C        9.29282957      -7.35322936       7.79114029
N       10.53854800      -7.14155519       7.50513784
C       11.49518915      -7.80204591       8.28844294
C       11.62824519      -9.19482791       8.26982942
C       12.61550537      -9.82411491       9.03352102
C       13.48332245      -9.05523509       9.80706053
C       13.37329832      -7.66640073       9.82263939
C       12.38115094      -7.04467057       9.05970856
H        2.10065709      -4.98886984       3.59219938
H        4.35748855      -2.87471034       3.56917047
H        1.58934048      -4.15039639       1.41629130
H        0.16138060      -2.72871914       0.02450206
H        1.79796280       0.78366076       1.90609514
H        3.22274260      -0.63221128       3.32473027
H        7.65355058      -4.50684774       4.49690087
H        9.51177973      -5.60595589       5.71148984
H        6.64734489      -7.63544267       8.22802759
H        4.80607689      -6.52572396       7.03556208
H        8.99284495      -8.02961532       8.61370369
H       10.96736578      -9.79219406       7.64803159
H       12.70414506     -10.90665590       9.00836530
H       14.05406712      -7.05960217      10.41322105
H       12.29922386      -5.96088853       9.05706644
C       14.50794620      -9.70004264      10.58678447
C       15.36606858     -10.24006896      11.23980326
Br      16.75357990     -11.11324584      12.29567941
