165
Properties=species:S:1:pos:R:3 pbc="F F F"
C        0.00000000       0.00000000       0.00000000
O        6.56749690       4.86494672      -3.62208542
C        5.41851257       4.59785400      -3.94944850
C        4.54014679       3.79815664      -3.06723240
C        3.32065825       3.34073935      -3.39221492
C        2.50382057       2.50491998      -2.49758333
C        3.07248638       1.55218591      -1.63864518
C        2.26581987       0.74767181      -0.82794728
C        0.88152387       0.88152387      -0.88152387
C        0.29742708       1.80890889      -1.74070258
C        1.10722353       2.61372004      -2.54960988
O        4.77517551       4.94899640      -5.12313828
C        5.46964248       5.66938402      -6.11521675
C        5.19146680       5.31277946      -7.43577475
C        5.80933125       6.00012860      -8.48192169
C        6.69394123       7.04667194      -8.20064699
C        6.95644377       7.41203458      -6.87635913
C        6.33162610       6.72885728      -5.82908921
C        7.34976652       7.79562397      -9.29180873
N        7.13455748       7.51299265     -10.53769089
C        7.79464887       8.29698206     -11.49404707
C        9.18707336       8.27546250     -11.63036666
C        9.81584519       9.03998133     -12.61731478
C        9.04675606       9.81729805     -13.48156397
Br       9.89242538      10.84195913     -14.82613064
C        7.65821902       9.83582711     -13.36829230
C        7.03701703       9.07204031     -12.37647272
H        4.99230415       3.58552681      -2.10389535
H        2.87289498       3.57259622      -4.35587815
H        4.14998248       1.41038253      -1.59566315
H        2.72838886       0.01857861      -0.16763433
H       -0.78339689       1.91205171      -1.79174236
H        0.63246099       3.33070743      -3.21651573
H        4.49956366       4.50417879      -7.65355674
H        5.59718721       5.72052288      -9.51151536
H        7.63909329       8.22573910      -6.64598277
H        6.53087126       7.03158206      -4.80490960
H        8.02874356       8.61592838      -8.99149202
H        9.78452319       7.65076104     -10.97230720
H       10.89811768       9.01253277     -12.70851580
H        7.05121875      10.42938034     -14.04629125
H        5.95342371       9.07170957     -12.29204555
O       -3.65761805      -4.80507286      -6.59183813
C       -3.98947169      -4.53041338      -5.44593000
C       -3.17057481      -3.62402068      -4.61094034
C       -3.37470624      -3.37024215      -3.30866413
C       -2.50133848      -2.49859240      -2.50639299
C       -1.11508060      -2.43441249      -2.71382438
C       -0.30793756      -1.62390832      -1.90959309
C       -0.88152387      -0.88152387      -0.88152387
C       -2.25299022      -0.94568438      -0.64836394
C       -3.05841091      -1.75637062      -1.45577192
O       -5.09757665      -4.99206874      -4.75766480
C       -5.97178285      -5.91107569      -5.37138471
C       -6.48888917      -6.90831830      -4.54281354
C       -7.39058284      -7.83907680      -5.06172191
C       -7.77715268      -7.76027623      -6.40383124
C       -7.26988195      -6.74893340      -7.22602213
C       -6.37306067      -5.81224433      -6.70426760
C       -8.73907888      -8.72699515      -6.97112518
N       -9.25400986      -9.67604487      -6.25518630
C      -10.16975369     -10.52846763      -6.88745667
C       -9.78319495     -11.38801830      -7.92168927
C      -10.71006029     -12.25377895      -8.50930206
C      -12.02568943     -12.27050298      -8.04942567
Br     -13.27867750     -13.44947754      -8.83236010
C      -12.42102240     -11.43201355      -7.00930248
C      -11.48971233     -10.56626587      -6.42955185
H       -2.34431243      -3.18041471      -5.15699916
H       -4.21478492      -3.81034378      -2.77624066
H       -0.63850927      -3.02322386      -3.49429504
H        0.76323186      -1.58712417      -2.09070950
H       -2.70469816      -0.37368585       0.15798684
H       -4.12752149      -1.79562748      -1.25653518
H       -6.19313247      -6.96505020      -3.49911652
H       -7.79101496      -8.61963264      -4.41857786
H       -7.56582496      -6.67576940      -8.26922078
H       -5.99771414      -5.02166027      -7.34798852
H       -9.00387678      -8.59505959      -8.03722760
H       -8.75199494     -11.39207312      -8.26352338
H      -10.39331226     -12.91374032      -9.31211367
H      -13.44158003     -11.44834216      -6.63696816
H      -11.78878180      -9.91972846      -5.60866857
O       -6.41451608       3.46903751       5.17097545
C       -5.36121481       3.89212561       4.71247465
C       -4.53656658       3.06365062       3.80531862
C       -3.31019049       3.38174257       3.36167945
C       -2.50663243       2.50039642       2.49929503
C       -2.53712200       1.10304599       2.62314947
C       -1.73323392       0.29512774       1.81307731
C       -0.88152387       0.88152387       0.88152387
C       -0.82376887       2.26727522       0.75599445
C       -1.63053889       3.07315478       1.56685977
O       -4.77504311       5.12300582       4.94926126
C       -5.38758290       6.03312118       5.83353917
C       -4.52422157       6.76823687       6.64756257
C       -5.04563817       7.71789365       7.52784972
C       -6.42680825       7.93339685       7.58105505
C       -7.28679926       7.20685951       6.75117871
C       -6.76390111       6.26155381       5.86411768
C       -6.99959228       8.94148091       8.49612602
N       -6.25241454       9.65516105       9.27766543
C       -6.89633158      10.59533577      10.09401064
C       -7.76503500      10.20770459      11.12016293
C       -8.36489289      11.16572610      11.94252231
C       -8.08206887      12.51645368      11.74709552
Br      -8.88074076      13.81400230      12.86577208
C       -7.20628179      12.91615686      10.73989978
C       -6.61358329      11.95285327       9.91909350
H       -5.01746110       2.12906333       3.53520187
H       -2.84493250       4.32790341       3.62853345
H       -3.17542271       0.62067594       3.35992952
H       -1.77582959      -0.78534272       1.92411493
H       -0.15479514       2.73034587       0.03525617
H       -1.56954600       4.15401175       1.45612640
H       -3.45130878       6.60484210       6.60114831
H       -4.37461700       8.28840893       8.16619953
H       -8.36114156       7.36834772       6.78132587
H       -7.43992579       5.71436284       5.21307431
H       -8.09919814       9.06197750       8.47498831
H       -7.96639902       9.15338561      11.28780681
H       -9.03787070      10.84745292      12.73384263
H       -6.97114198      13.96617936      10.58956900
H       -5.91895132      12.25755803       9.14066948
O        3.63801331      -6.57879458       4.83772114
C        3.95713024      -5.42441240       4.58427243
C        3.07419014      -4.54681312       3.78453256
C        3.39202390      -3.32018602       3.34140260
C        2.49757374      -2.50388821       2.50486192
C        1.65276571      -3.07156023       1.53899153
C        0.84204833      -2.26495085       0.73443979
C        0.88152387      -0.88152387       0.88152387
C        1.72666244      -0.29818441       1.82219169
C        2.53561573      -1.10794272       2.62699500
O        5.12150809      -4.77358701       4.95221509
C        6.11332243      -5.46555467       5.67536615
C        7.43446574      -5.17193017       5.33362509
C        8.47993627      -5.78649702       6.02494825
C        8.19727037      -6.68334644       7.06064335
C        6.87217123      -6.96141487       7.41125139
C        5.82547480      -6.33994451       6.72415329
C        9.28753741      -7.33602888       7.81363292
N       10.53391533      -7.10674062       7.54458507
C       11.48910539      -7.76525559       8.33131702
C       11.63855104      -9.15610582       8.29824566
C       12.62421866      -9.78284129       9.06608135
C       13.47408989      -9.01308407       9.85844411
Br      14.81696584      -9.85582325      10.88772605
C       13.34775385      -7.62588096       9.88870362
C       12.35727880      -7.00676633       9.12148493
H        2.11709510      -5.00582557       3.55880564
H        4.34930891      -2.86574296       3.58631748
H        1.62110599      -4.14804213       1.38688006
H        0.19280344      -2.72678459      -0.00498622
H        1.76670426       0.78205852       1.93575144
H        3.19145111      -0.63374327       3.35448977
H        7.65324437      -4.47056685       4.53348798
H        9.51004483      -5.56229304       5.75688759
H        6.64066633      -7.65368874       8.21646007
H        4.80044711      -6.55141570       7.01550012
H        8.98600326      -8.02533588       8.62482481
H       10.99185171      -9.75375820       7.66198152
H       12.72572200     -10.86392639       9.02951787
H       14.01458901      -7.01820590      10.49409543
H       12.26279223      -5.92404001       9.13034660
