194
Properties=species:S:1:pos:R:3 pbc="F F F"
O        7.47740092       5.77485074      -4.53198945
C        6.32841659       5.50775802      -4.85935253
C        5.45005081       4.70806066      -3.97713642
C        4.23056227       4.25064338      -4.30211894
C        3.41372459       3.41482400      -3.40748735
C        3.98239040       2.46208993      -2.54854921
C        3.17572390       1.65757584      -1.73785131
C        1.79142789       1.79142789      -1.79142789
C        1.20733110       2.71881291      -2.65060660
C        2.01712755       3.52362406      -3.45951391
O        5.68507954       5.85890042      -6.03304231
C        6.37954651       6.57928805      -7.02512077
C        6.10137082       6.22268348      -8.34567877
C        6.71923528       6.91003262      -9.39182571
C        7.60384525       7.95657596      -9.11055101
C        7.86634780       8.32193861      -7.78626315
C        7.24153013       7.63876130      -6.73899324
C        8.25967054       8.70552799     -10.20171275
N        8.04446150       8.42289668     -11.44759492
C        8.70455290       9.20688608     -12.40395109
C       10.09697738       9.18536653     -12.54027068
C       10.72574921       9.94988535     -13.52721881
C        9.95666008      10.72720208     -14.39146799
C        8.56812304      10.74573114     -14.27819633
C        7.94692105       9.98194434     -13.28637674
H        5.90220818       4.49543083      -3.01379937
H        3.78279901       4.48250024      -5.26578218
H        5.05988651       2.32028656      -2.50556718
H        3.63829289       0.92848263      -1.07753836
H        0.12650713       2.82195574      -2.70164638
H        1.54236501       4.24061145      -4.12641976
H        5.40946768       5.41408282      -8.56346077
H        6.50709124       6.63042691     -10.42141939
H        8.54899731       9.13564312      -7.55588679
H        7.44077529       7.94148609      -5.71481363
H        8.93864758       9.52583241      -9.90139604
H       10.69442722       8.56066506     -11.88221123
H       11.80802171       9.92243679     -13.61841983
H        7.96112277      11.33928437     -14.95619528
H        6.86332774       9.98161360     -13.20194957
C       10.60090324      11.50780375     -15.41577839
C       11.14045688      12.16155765     -16.27363834
Br      12.01286949      13.21862241     -17.66072534
O       -4.59221627      -5.67510417      -7.51692067
C       -4.91202001      -5.42053109      -6.36297604
C       -4.09408526      -4.51437211      -5.52679052
C       -4.28376572      -4.28103965      -4.21851922
C       -3.41134887      -3.40842862      -3.41625846
C       -2.02905741      -3.32246282      -3.64150930
C       -1.22199970      -2.51191992      -2.83723142
C       -1.79142789      -1.79142789      -1.79142789
C       -3.15857831      -1.87751937      -1.54065293
C       -3.96395506      -2.68817777      -2.34813269
O       -6.00424941      -5.90658670      -5.66618616
C       -6.87428097      -6.82910620      -6.28056816
C       -7.36645954      -7.84444862      -5.45882491
C       -8.26251557      -8.78037562      -5.97820242
C       -8.66846803      -8.68874578      -7.31375841
C       -8.18622638      -7.65952675      -8.12879642
C       -7.29508301      -6.71777550      -7.60642616
C       -9.62492233      -9.66079783      -7.88119112
N      -10.11712062     -10.62640410      -7.17142838
C      -11.02983627     -11.48267014      -7.80288365
C      -10.64590178     -12.32278597      -8.85392684
C      -11.56894471     -13.19314342      -9.44076524
C      -12.87780304     -13.23410653      -8.96342057
C      -13.27014475     -12.41524789      -7.90665787
C      -12.34276546     -11.54473624      -7.32774043
H       -3.28145382      -4.05214639      -6.07783817
H       -5.11044510      -4.73976670      -3.68086963
H       -1.55530948      -3.89408613      -4.43634463
H       -0.15400747      -2.45801775      -3.03228866
H       -3.60688561      -1.32271493      -0.72050871
H       -5.02960711      -2.74476893      -2.13502018
H       -7.05569044      -7.91122471      -4.42009612
H       -8.64351105      -9.57496648      -5.34046000
H       -8.49739705      -7.57633090      -9.16679928
H       -6.93931192      -5.91349421      -8.24426887
H       -9.90606185      -9.51810498      -8.94170920
H       -9.61952167     -12.30809051      -9.20969133
H      -11.25433489     -13.83779142     -10.25675201
H      -14.28519103     -12.45058944      -7.52082195
H      -12.63927094     -10.91351175      -6.49410822
C      -13.82820317     -14.13711705      -9.55916515
C      -14.62416327     -14.89338836     -10.05810123
Br     -15.91116345     -16.11621511     -10.86483868
O       -7.35443067       4.40212278       6.02768766
C       -6.28556813       4.81410104       5.59585796
C       -5.45948698       3.98710178       4.68865913
C       -4.21975272       4.29070317       4.27286870
C       -3.41651438       3.41043360       3.40908797
C       -3.47421954       2.01187912       3.50693088
C       -2.67029096       1.20407269       2.69678740
C       -1.79142789       1.79142789       1.79142789
C       -1.70664298       3.17792088       1.69218675
C       -2.51350344       3.98372754       2.50303454
O       -5.68189884       6.02968323       5.86544019
C       -6.29406529       6.93484560       6.75504443
C       -5.43265973       7.63946504       7.59760830
C       -5.95295338       8.58256921       8.48557102
C       -7.33079109       8.82218344       8.51799770
C       -8.18838566       8.12636153       7.65980237
C       -7.66640993       7.18770113       6.76517361
C       -7.90202424       9.82400894       9.44087811
N       -7.15655647      10.50989442      10.24850220
C       -7.79831666      11.44689133      11.07018207
C       -8.69233680      11.05685508      12.07342271
C       -9.28984267      12.01078379      12.90222691
C       -8.97941600      13.35941813      12.73649601
C       -8.07844370      13.76105480      11.75255201
C       -7.48821755      12.80194824      10.92507634
H       -5.95201185       3.06639614       4.39303039
H       -3.74259309       5.22332143       4.56516691
H       -4.13433953       1.52811369       4.22328702
H       -2.73420215       0.12274443       2.78736729
H       -1.01649674       3.64154837       0.99206414
H       -2.43119964       5.06510199       2.41309460
H       -4.36217139       7.45743003       7.56740984
H       -5.28357038       9.12928107       9.14608608
H       -9.26004111       8.30680733       7.67367878
H       -8.34014700       6.66462388       6.09230412
H       -8.99873441       9.96485266       9.40228896
H       -8.91552736      10.00354716      12.21822899
H       -9.98268835      11.69071817      13.67547180
H       -7.82188015      14.80914365      11.62557862
H       -6.77420189      13.10782537      10.16486364
C       -9.58549992      14.34342924      13.59555621
C      -10.09309520      15.16753855      14.31501913
Br     -10.91383383      16.50005359      15.47832981
O        4.53765675      -7.48149571       5.76508865
C        4.86208481      -6.33055360       5.50288873
C        3.97960837      -5.45246180       4.70317773
C        4.30205169      -4.23039213       4.25088077
C        3.40748378      -3.41374889       3.41480328
C        2.55359670      -3.98208754       2.45734530
C        1.74289173      -3.17544152       1.65281779
C        1.79142789      -1.79142789       1.79142789
C        2.64558819      -1.20757346       2.72358897
C        3.45451200      -2.01735629       3.52839722
O        6.03246319      -5.68450509       5.86005399
C        7.02445259      -6.37807313       6.58142960
C        8.34525260      -6.09434568       6.23013480
C        9.39116486      -6.71102338       6.91890537
C        9.10936702      -7.60002982       7.96157539
C        7.78475616      -7.86812573       8.32166766
C        6.73768404      -7.24451246       7.63708817
C       10.20021575      -8.25472352       8.71197201
N       11.44630501      -8.03445482       8.43419327
C       12.40224786      -8.69397709       9.21916512
C       12.54326099     -10.08586364       9.19348997
C       13.52975589     -10.71390079       9.95919669
C       14.38886899      -9.94454093      10.74192023
C       14.27092634      -8.55645558      10.76466859
C       13.27958274      -7.93600674       9.99965265
H        3.01848713      -5.90709647       4.48585478
H        5.26345008      -3.78021427       4.48741708
H        2.51466250      -5.05924317       2.31183456
H        1.08653516      -3.63776977       0.92000894
H        2.69269695      -0.12693494       2.83047735
H        4.11746097      -1.54277261       4.24916264
H        8.56341083      -5.39904424       5.42455620
H       10.42096816      -6.49454554       6.64342382
H        7.55395608      -8.55423228       9.13233886
H        5.71317540      -7.44815041       7.93574920
H        9.89944206      -8.93741103       9.52902294
H       11.88926029     -10.68341044       8.56463278
H       13.62464065     -11.79576839       9.92846928
H       14.94493770      -7.94918901      11.36247571
H       13.19155932      -6.85270366      10.00262793
C       15.41272390     -10.58797898      11.52378249
C       16.27020239     -11.12685835      12.17859213
Br      17.65667258     -11.99818071      13.23736394
C       -0.00445707       0.01189536      -1.78238275
H       -0.66409135       0.67374010      -2.43557963
H        0.65740317      -0.63156657      -2.45157240
C       -0.90989263      -0.90692880      -0.91072765
C        0.90977584       0.90977584      -0.90977584
C       -0.00465871       1.77757030       0.00794375
H       -0.66225468       2.44313916      -0.64384735
H        0.64322798       2.43503045       0.67728295
C       -1.78241447       0.00034974      -0.00472694
H       -2.45427497      -0.65498947       0.64260836
H       -2.43311707       0.67328779      -0.65473579
C       -0.91132561       0.90220522       0.91563759
C       -0.01476271      -0.02253852       1.78660255
H       -0.67934791      -0.69751639       2.42135241
H        0.63392994       0.61504881       2.47327442
C        0.01484550      -1.77751727      -0.01636693
H        0.67870853      -2.42144646      -0.68295456
H       -0.62264859      -2.45592969       0.64226336
C        1.78714474       0.01002794       0.00389507
H        2.44202412       0.67113390       0.66197326
H        2.45385902      -0.65136977      -0.64189061
C        0.91606151      -0.90478549       0.90901405
