125
Properties=species:S:1:pos:R:3 pbc="F F F"
C        0.00000000       0.00000000       0.00000000
O        4.84208344       4.83736436      -5.18737364
C        5.08569616       4.92777150      -3.99241465
C        4.33236809       4.11562079      -2.99135869
C        3.31770210       3.33412361      -3.39414210
C        2.50621588       2.49941505      -2.49704890
C        1.99089688       1.29063211      -2.98515540
C        1.18527748       0.48003854      -2.17940762
C        0.88153477       0.88153477      -0.88153477
C        1.37066062       2.08728160      -0.38520521
C        2.17519054       2.89616894      -1.19378041
N        6.02152382       5.74343816      -3.38809961
C        6.87970208       6.67035115      -4.01765493
C        6.91559093       6.89300282      -5.39655718
C        7.78839907       7.84188719      -5.94178219
C        8.63038164       8.57182700      -5.10792336
C        8.60978639       8.35976811      -3.73290918
C        7.73706278       7.41077239      -3.19126913
H        4.63115827       4.17178178      -1.95327028
H        3.06025679       3.28018045      -4.45141653
H        2.21616177       0.96448018      -3.99917382
H        0.79997682      -0.45576984      -2.57640582
H        1.12562898       2.41167141       0.62290736
H        2.52240498       3.84550471      -0.79420121
H        6.09981166       5.69546118      -2.38188396
H        6.27412178       6.34617792      -6.08113600
H        7.79675345       7.99932890      -7.01732324
H        9.26418013       8.92570574      -3.07495390
H        7.73756879       7.26429909      -2.11445134
C        9.52450561       9.55106735      -5.66937743
C       10.27333443      10.37118114      -6.13959522
Br      11.48412731      11.69723577      -6.89989761
O       -4.84326416      -5.18735380      -4.83620347
C       -4.90914075      -3.99538086      -5.10136070
C       -4.09277510      -2.99538395      -4.35118852
C       -3.33542469      -3.39384435      -3.31669877
C       -2.49926040      -2.49716575      -2.50625367
C       -1.30781758      -2.99663141      -1.96223540
C       -0.49722325      -2.19096721      -1.15653318
C       -0.88153477      -0.88153477      -0.88153477
C       -2.07024181      -0.37345196      -1.39945366
C       -2.87919701      -1.18195282      -2.20399007
N       -5.69853229      -3.39352600      -6.06100330
C       -6.62152008      -4.02199249      -6.92419559
C       -6.86706029      -5.39737251      -6.94071812
C       -7.81032686      -5.94141380      -7.82032780
C       -8.51167113      -5.10991774      -8.68854313
C       -8.27653022      -3.73850802      -8.68742544
C       -7.33321215      -3.19805398      -7.80783817
H       -4.12616838      -1.96175432      -4.66828763
H       -3.30388193      -4.44732352      -3.04064831
H       -0.99529785      -4.01968483      -2.16483309
H        0.42506346      -2.59698699      -0.74868926
H       -2.38143281       0.64400538      -1.17696559
H       -3.81560281      -0.77247496      -2.57403313
H       -5.63206543      -2.38974229      -6.15534909
H       -6.34286054      -6.07998116      -6.27859399
H       -7.98595608      -7.01414456      -7.81330495
H       -8.82007493      -3.08241505      -9.36234979
H       -7.16837757      -2.12401399      -7.82392767
C       -9.48520419      -5.67003771      -9.58970849
C      -10.30053812      -6.13913819     -10.34443448
Br     -11.61886414      -6.89763398     -11.56476257
O       -5.10711593       5.03176116       4.72794434
C       -4.15232756       4.54043727       5.31311748
C       -3.17495159       3.67092989       4.59346609
C       -3.38589304       3.35410414       3.30597064
C       -2.49540520       2.50339633       2.50387829
C       -2.37984644       2.75678565       1.13005230
C       -1.57141685       1.95268786       0.32061893
C       -0.88153477       0.88153477       0.88153477
C       -0.99744697       0.60433570       2.24136475
C       -1.80748665       1.40967588       3.04797737
N       -3.82904318       4.67540344       6.64861496
C       -4.54749320       5.38699949       7.63321547
C       -5.72601146       6.09501270       7.38412676
C       -6.38639678       6.76496069       8.42071098
C       -5.86852322       6.72953446       9.71207432
C       -4.69389739       6.03210346       9.97646284
C       -4.03620273       5.36421025       8.93869132
H       -2.30542223       3.31881435       5.13197375
H       -4.25827139       3.74800835       2.78557402
H       -2.91590748       3.58832169       0.67558659
H       -1.49240531       2.16984996      -0.74164247
H       -0.47132749      -0.23873758       2.68180311
H       -1.90405606       1.15726162       4.10079321
H       -2.99801870       4.20308590       6.97605221
H       -6.16382280       6.14589749       6.39171541
H       -7.30307999       7.30718110       8.20314451
H       -4.28299976       5.99962857      10.98221143
H       -3.12167230       4.82465145       9.16999547
C       -6.55120854       7.41513366      10.77860819
C       -7.12295749       7.98932299      11.67183031
Br      -8.04742719       8.91773858      13.11609492
O        5.09547040      -4.72560975       5.04574129
C        4.34029950      -5.35080050       4.31478231
C        3.42565361      -4.64372470       3.36996925
C        3.36804810      -3.30239323       3.37552648
C        2.50176835      -2.50515392       2.49575755
C        2.94652282      -1.24365477       2.07650679
C        2.14244691      -0.43509420       1.26718253
C        0.88153477      -0.88153477       0.88153477
C        0.41607192      -2.12481561       1.30225990
C        1.22211809      -2.93062764       2.11239416
N        4.19238802      -6.72145526       4.23921831
C        4.86120029      -7.69610481       5.01040306
C        5.81513382      -7.40199326       5.98802385
C        6.42398413      -8.42824617       6.71983815
C        6.08058523      -9.75458672       6.47496006
C        5.13517395     -10.06492622       5.50236351
C        4.52902565      -9.03748828       4.77259037
H        2.82926043      -5.23698839       2.68996151
H        4.00250247      -2.73429963       4.05505166
H        3.92854131      -0.87859084       2.37268361
H        2.50889299       0.53786563       0.94958544
H       -0.57291504      -2.47246222       1.01484584
H        0.82649386      -3.88477267       2.45084436
H        3.52126135      -7.08094746       3.57494799
H        6.10965422      -6.38085616       6.21092532
H        7.16161175      -8.17478415       7.47700969
H        4.86153266     -11.09819080       5.30511630
H        3.79217120      -9.30441141       4.01973661
C        6.70406605     -10.80925177       7.23163257
C        7.22623124     -11.69253375       7.86534579
Br       8.07052819     -13.12072601       8.89000649
