117
Properties=species:S:1:pos:R:3 pbc="F F F"
C        0.00000000       0.00000000       0.00000000
O        4.84208344       4.83736436      -5.18737364
C        5.08569616       4.92777150      -3.99241465
C        4.33236809       4.11562079      -2.99135869
C        3.31770210       3.33412361      -3.39414210
C        2.50621588       2.49941505      -2.49704890
C        1.99089688       1.29063211      -2.98515540
C        1.18527748       0.48003854      -2.17940762
C        0.88153477       0.88153477      -0.88153477
C        1.37066062       2.08728160      -0.38520521
C        2.17519054       2.89616894      -1.19378041
N        6.02152382       5.74343816      -3.38809961
C        6.87970208       6.67035115      -4.01765493
C        6.91559093       6.89300282      -5.39655718
C        7.78839907       7.84188719      -5.94178219
C        8.63038164       8.57182700      -5.10792336
Br       9.80333697       9.85644214      -5.84446614
C        8.60978639       8.35976811      -3.73290918
C        7.73706278       7.41077239      -3.19126913
H        4.63115827       4.17178178      -1.95327028
H        3.06025679       3.28018045      -4.45141653
H        2.21616177       0.96448018      -3.99917382
H        0.79997682      -0.45576984      -2.57640582
H        1.12562898       2.41167141       0.62290736
H        2.52240498       3.84550471      -0.79420121
H        6.09981166       5.69546118      -2.38188396
H        6.27412178       6.34617792      -6.08113600
H        7.79675345       7.99932890      -7.01732324
H        9.26418013       8.92570574      -3.07495390
H        7.73756879       7.26429909      -2.11445134
O       -4.83908416      -5.18738850      -4.84034877
C       -4.92233042      -3.99322427      -5.09032762
C       -4.10894738      -2.99246593      -4.33793426
C       -3.33450391      -3.39405883      -3.31740507
C       -2.49936956      -2.49708283      -2.50622744
C       -1.29560119      -2.98860118      -1.98248202
C       -0.48500711      -2.18287805      -1.17683848
C       -0.88153477      -0.88153477      -0.88153477
C       -2.08235595      -0.38167816      -1.37911332
C       -2.89126333      -1.19023167      -2.18364489
N       -5.73032952      -3.38954272      -6.03318934
C       -6.65610218      -4.01876305      -6.89284293
C       -6.88543798      -5.39670661      -6.92300633
C       -7.83268898      -5.94156270      -7.79781678
C       -8.55428520      -5.10830048      -8.64754632
Br      -9.83672407      -5.84430067      -9.82322050
C       -8.33548549      -3.73426857      -8.63270963
C       -7.38814058      -3.19299833      -7.75796540
H       -4.15845617      -1.95561292      -4.64214124
H       -3.28710355      -4.45029231      -3.05445790
H       -0.97339118      -4.00533279      -2.20109179
H        0.44689152      -2.58258510      -0.78491922
H       -2.40293126       0.62923747      -1.14069924
H       -3.83686491      -0.78768696      -2.53755903
H       -5.67695440      -2.38397957      -6.11622284
H       -6.34521499      -6.08078367      -6.27543703
H       -7.99544203      -7.01633857      -7.80162499
H       -8.89488927      -3.07678404      -9.29316644
H       -7.23630541      -2.11693552      -7.76307829
O       -5.10151448       5.03862025       4.72668670
C       -4.16663842       4.51938687       5.31985702
C       -3.19204873       3.64519859       4.60210025
C       -3.38499904       3.35555517       3.30541360
C       -2.49541669       2.50324097       2.50402216
C       -2.35011277       2.77918707       1.13738455
C       -1.54158667       1.97510593       0.32803103
C       -0.88153477       0.88153477       0.88153477
C       -1.02736427       0.58204555       2.23373761
C       -1.83742575       1.38744905       3.04026510
N       -3.86554124       4.62430368       6.66321667
C       -4.58899994       5.33110493       7.64760329
C       -5.74979505       6.06500488       7.39035099
C       -6.41691308       6.72816914       8.42698623
C       -5.92355218       6.65997375       9.72660607
Br      -6.82830570       7.55029893      11.12564062
C       -4.76673830       5.93644818       9.99927720
C       -4.10225121       5.27540882       8.96144427
H       -2.33903784       3.26753350       5.14963899
H       -4.24043721       3.77472096       2.77669559
H       -2.86266724       3.62847847       0.68867005
H       -1.43918954       2.20989202      -0.72846876
H       -0.52469854      -0.27834397       2.66803846
H       -1.95783695       1.11791500       4.08635894
H       -3.04931483       4.13098743       6.99685455
H       -6.16832881       6.14179590       6.39131098
H       -7.31952660       7.29095707       8.20292192
H       -4.37502233       5.87831458      11.01150286
H       -3.20199394       4.71507352       9.19925177
O        5.10108934      -4.72660170       5.03913039
C        4.32205651      -5.35093086       4.33289493
C        3.40321670      -4.64432057       3.39181030
C        3.36933768      -3.30228232       3.37434782
C        2.50160107      -2.50525865       2.49582010
C        2.96090739      -1.25950507       2.04627193
C        2.15681638      -0.45103829       1.23686897
C        0.88153477      -0.88153477       0.88153477
C        0.40187367      -2.10867882       1.33259494
C        1.20799721      -2.91441897       2.14272372
N        4.14871299      -6.71983321       4.28451538
C        4.81397638      -7.69258443       5.06114735
C        5.79030111      -7.39844965       6.01640016
C        6.39400780      -8.42240661       6.75565404
C        6.02298499      -9.74648638       6.54066063
Br       6.83407200     -11.12679352       7.54337973
C        5.05498420     -10.05690825       5.59057123
C        4.45403610      -9.03177912       4.85328908
H        2.78438632      -5.23868068       2.73314333
H        4.02576558      -2.73377477       4.03231342
H        3.95434802      -0.90693756       2.31853019
H        2.53458171       0.50945920       0.89549029
H       -0.59806966      -2.44355542       1.06890727
H        0.80176771      -3.85521779       2.50512539
H        3.45956926      -7.07887964       3.63870791
H        6.10669522      -6.37898814       6.21575234
H        7.14942972      -8.16891324       7.49506263
H        4.75970880     -11.08841596       5.41671500
H        3.69922753      -9.29866722       4.11842447
