146
Properties=species:S:1:pos:R:3 pbc="F F F"
O        5.75198746       5.74726838      -6.09727766
C        5.99560018       5.83767552      -4.90231868
C        5.24227211       5.02552482      -3.90126271
C        4.22760612       4.24402764      -4.30404613
C        3.41611990       3.40931907      -3.40695292
C        2.90080090       2.20053613      -3.89505943
C        2.09518150       1.38994256      -3.08931165
C        1.79143880       1.79143880      -1.79143880
C        2.28056465       2.99718562      -1.29510923
C        3.08509456       3.80607297      -2.10368444
N        6.93142784       6.65334219      -4.29800363
C        7.78960611       7.58025517      -4.92755895
C        7.82549495       7.80290685      -6.30646120
C        8.69830310       8.75179121      -6.85168622
C        9.54028567       9.48173103      -6.01782738
C        9.51969042       9.26967213      -4.64281320
C        8.64696681       8.32067641      -4.10117315
H        5.54106229       5.08168580      -2.86317431
H        3.97016081       4.19008448      -5.36132055
H        3.12606579       1.87438420      -4.90907784
H        1.70988084       0.45413419      -3.48630984
H        2.03553301       3.32157543      -0.28699666
H        3.43230900       4.75540873      -1.70410523
H        7.00971569       6.60536521      -3.29178799
H        7.18402580       7.25608194      -6.99104002
H        8.70665748       8.90923293      -7.92722727
H       10.17408415       9.83560976      -3.98485792
H        8.64747281       8.17420312      -3.02435537
C       10.43440963      10.46097137      -6.57928146
C       11.18323846      11.28108516      -7.04949925
Br      12.39403133      12.60713979      -7.80980164
O       -5.90997155      -6.04028302      -5.64627894
C       -5.35175562      -5.13459328      -6.24924548
C       -4.43339692      -4.19307408      -5.54258864
C       -4.27709213      -4.28619346      -4.21239430
C       -3.40617114      -3.41054205      -3.41567870
C       -2.78519554      -3.93676544      -2.27443548
C       -1.97538320      -3.13253031      -1.46652220
C       -1.79143880      -1.79143880      -1.79143880
C       -2.41388714      -1.24701155      -2.91196081
C       -3.22393421      -2.05359638      -3.71732138
N       -5.46558327      -4.82682453      -7.59036586
C       -6.27366894      -5.47445135      -8.54929994
C       -7.09446033      -6.57019065      -8.27021201
C       -7.87687355      -7.14802671      -9.27688025
C       -7.83997262      -6.63123558     -10.56863587
C       -7.02522120      -5.54272271     -10.86423185
C       -6.24437110      -4.96793819      -9.85650709
H       -3.90374511      -3.45385600      -6.12832130
H       -4.80519030      -5.06007371      -3.65630183
H       -2.92216367      -4.98263796      -2.00472620
H       -1.49951454      -3.56220199      -0.58860833
H       -2.28414899      -0.19730548      -3.16265063
H       -3.72124754      -1.59986721      -4.57070822
H       -4.93044680      -4.04190902      -7.93451306
H       -7.15340287      -7.00208761      -7.27565729
H       -8.50949435      -7.99835621      -9.03526711
H       -6.99076798      -5.13327718     -11.87050668
H       -5.61760888      -4.11741489     -10.11100752
C       -8.64882743      -7.22345152     -11.60238351
C       -9.32624334      -7.71943237     -12.46814715
Br     -10.42156756      -8.52139145     -13.86801374
O       -5.87223853       6.06279246       5.66150251
C       -5.45985865       5.05595686       6.21977887
C       -4.56447986       4.09563773       5.50894205
C       -4.26988762       4.29192078       4.21387149
C       -3.40671736       3.40964935       3.41602519
C       -2.63137960       3.97232318       2.39269369
C       -1.82125401       3.16786766       1.58531404
C       -1.79143880       1.79143880       1.79143880
C       -2.56782478       1.21272972       2.79230500
C       -3.37772001       2.01976628       3.59736567
N       -5.73270405       4.64176967       7.50829994
C       -6.57008877       5.27728809       8.45004337
C       -7.25760788       6.46931797       8.20793715
C       -8.08052833       7.02884961       9.19240258
C       -8.21788616       6.39706073      10.42489719
C       -7.53733397       5.21130681      10.68353497
C       -6.71558437       4.65504860       9.69818340
H       -4.16376098       3.25815221       6.06400921
H       -4.66888097       5.16094390       3.69174097
H       -2.64659454       5.04657902       2.21635428
H       -1.22439151       3.62553686       0.80039650
H       -2.55824163       0.13709602       2.94876746
H       -3.99557387       1.54257400       4.35367510
H       -5.30680159       3.78014405       7.81992325
H       -7.17905801       6.99246467       7.25962509
H       -8.60729300       7.95572268       8.98010198
H       -7.63929546       4.71177622      11.64348015
H       -6.19591559       3.72740482       9.92271089
C       -9.06839410       6.97102286      11.43524550
C       -9.78069450       7.45171615      12.28141221
Br     -10.93242401       8.22895654      13.64959221
O        5.85744226      -5.66893775       6.07015349
C        5.70109334      -6.09855662       4.93594442
C        4.88628242      -5.34723384       3.93554338
C        4.24697155      -4.22538699       4.30332135
C        3.41489849      -3.41191410       3.40557930
C        3.36093062      -2.02608880       3.60937704
C        2.55640588      -1.21589468       2.80213515
C        1.79143880      -1.79143880       1.79143880
C        1.81936895      -3.16840969       1.58508086
C        2.62412880      -3.97605094       2.39467223
N        6.19872505      -7.27412088       4.40992773
C        6.97212908      -8.24801508       5.07727606
C        7.37144603      -8.15073261       6.41268435
C        8.12789187      -9.16860204       7.00528661
C        8.48880755     -10.28875714       6.26227938
C        8.10240755     -10.39958124       4.93018697
C        7.34714905      -9.38081739       4.34084994
H        4.83622937      -5.72608878       2.92360426
H        4.34058690      -3.85671121       5.32426773
H        3.95028390      -1.56124055       4.39800339
H        2.53303524      -0.14279316       2.97449647
H        1.21390687      -3.62430581       0.80589243
H        2.60838499      -5.05074796       2.23269002
H        5.97794523      -7.48266851       3.44625514
H        7.10926764      -7.29469527       7.02718485
H        8.42487853      -9.07176663       8.04647251
H        8.38024155     -11.27114916       4.34316113
H        7.05547801      -9.49077429       3.29977899
C        9.26297151     -11.33746888       6.87422207
C        9.91133383     -12.21576496       7.38672407
Br      10.95968086     -13.63589544       8.21539646
C       -0.00445707       0.01189536      -1.78238275
H       -0.66409135       0.67374010      -2.43557963
H        0.65740317      -0.63156657      -2.45157240
C       -0.90989263      -0.90692880      -0.91072765
C        0.90977584       0.90977584      -0.90977584
C       -0.00465871       1.77757030       0.00794375
H       -0.66225468       2.44313916      -0.64384735
H        0.64322798       2.43503045       0.67728295
C       -1.78241447       0.00034974      -0.00472694
H       -2.45427497      -0.65498947       0.64260836
H       -2.43311707       0.67328779      -0.65473579
C       -0.91132561       0.90220522       0.91563759
C       -0.01476271      -0.02253852       1.78660255
H       -0.67934791      -0.69751639       2.42135241
H        0.63392994       0.61504881       2.47327442
C        0.01484550      -1.77751727      -0.01636693
H        0.67870853      -2.42144646      -0.68295456
H       -0.62264859      -2.45592969       0.64226336
C        1.78714474       0.01002794       0.00389507
H        2.44202412       0.67113390       0.66197326
H        2.45385902      -0.65136977      -0.64189061
C        0.91606151      -0.90478549       0.90901405
