174
Properties=species:S:1:pos:R:3 pbc="F F F"
C        1.79160710       1.79160710      -1.79160710
C        1.66567570       3.17750508      -1.73018560
C        2.47174435       3.98440613      -2.53775631
C        3.40172142       3.41124795      -3.41886948
C        4.29700583       4.29669759      -4.25916748
O        4.50518410       3.69831427      -5.53984885
C        5.35122271       4.33879902      -6.40054392
C        5.98378212       5.56181383      -6.17606095
C        6.83359616       6.10170460      -7.14906067
C        7.04482413       5.42127539      -8.35184225
C        6.40970304       4.20198069      -8.58595497
C        5.56796307       3.66521052      -7.60783577
C        7.94335603       5.97227049      -9.38599711
N        8.69297859       7.00116193      -9.15492854
C        9.54542943       7.46618909     -10.16944062
C       10.35478613       6.62060738     -10.93845900
C       11.22639280       7.14467550     -11.89883084
C       11.30726386       8.52373573     -12.07853729
Br      12.50155995       9.23553963     -13.35779658
C       10.52381122       9.38057446     -11.30986562
C        9.64801904       8.84832206     -10.35858400
C        3.52597412       2.01336932      -3.45332090
C        2.71958285       1.20521138      -2.64826230
H        0.94644521       3.63897594      -1.05820102
H        2.36537084       5.06532512      -2.47490920
H        5.24985721       4.41498790      -3.72819414
H        3.81639944       5.27361283      -4.39388852
H        5.84215210       6.12550911      -5.26007465
H        7.32575010       7.05473546      -6.96544332
H        6.56547499       3.65561794      -9.51239797
H        5.07682704       2.71114783      -7.78485415
H        7.94205947       5.45288433     -10.36314745
H       10.32765306       5.54710819     -10.78262343
H       11.84448098       6.47113623     -12.48611168
H       10.59100242      10.45866547     -11.43189282
H        9.04684907       9.51529301      -9.74626668
H        4.25211056       1.54480170      -4.11585583
H        2.82538287       0.12476671      -2.69759891
C       -1.79160710      -1.79160710      -1.79160710
C       -2.47730048      -1.22990683      -2.86615907
C       -3.28499990      -2.03647235      -3.67243455
C       -3.42035077      -3.40738651      -3.40410158
C       -4.26630505      -4.27809119      -4.30847467
O       -4.93506826      -5.27487182      -3.53340713
C       -5.68966778      -6.19192920      -4.20896868
C       -5.92700569      -6.21105747      -5.58359374
C       -6.72055796      -7.21873648      -6.14506699
C       -7.28427017      -8.20424970      -5.32942190
C       -7.05736839      -8.18673943      -3.95353088
C       -6.25875075      -7.18203999      -3.40021863
C       -8.11768344      -9.27854315      -5.90539704
N       -8.21592503      -9.44898039      -7.18416365
C       -9.00456088     -10.50282749      -7.67367076
C       -8.94990749     -11.80441451      -7.15953051
C       -9.71856757     -12.82824178      -7.72308979
C      -10.53144000     -12.55674866      -8.82134821
Br     -11.55191916     -13.94314727      -9.59982974
C      -10.58400696     -11.27276147      -9.35748288
C       -9.81986953     -10.25265679      -8.78239879
C       -2.70738588      -3.95789189      -2.32738657
C       -1.90118286      -3.15271725      -1.51915642
H       -2.38939828      -0.16877675      -3.08544715
H       -3.81026343      -1.58428942      -4.51105232
H       -3.60201729      -4.74390897      -5.04711299
H       -5.01469975      -3.65526617      -4.81393487
H       -5.51461550      -5.46196549      -6.25115488
H       -6.89872522      -7.22865790      -7.21854575
H       -7.48252850      -8.94713381      -3.30382860
H       -6.07442269      -7.16994448      -2.32846185
H       -8.64597188      -9.92926169      -5.18285768
H       -8.29317876     -12.03665648      -6.32754944
H       -9.66286828     -13.83083961      -7.30802100
H      -11.20334492     -11.05444999     -10.22376580
H       -9.84681839      -9.25317224      -9.20841813
H       -2.78195558      -5.02204714      -2.10876537
H       -1.36542855      -3.59750262      -0.68481732
C       -1.79160710       1.79160710       1.79160710
C       -2.55443569       1.21463434       2.80429636
C       -3.36211834       2.02126880       3.61051965
C       -3.42016059       3.40817330       3.40350496
C       -4.26781716       4.27609922       4.30895452
O       -4.85071800       5.33941179       3.55321743
C       -5.59388365       6.25978134       4.23690066
C       -5.89698260       6.22641155       5.59826275
C       -6.66921235       7.24441631       6.17073276
C       -7.14584357       8.29324296       5.37885524
C       -6.85301966       8.32879619       4.01582286
C       -6.07599617       7.31313629       3.45187690
C       -7.95544805       9.37898278       5.96719280
N       -8.10803168       9.49424412       7.24679326
C       -8.86968703      10.56142478       7.74994733
C       -8.72937386      11.88132698       7.30315167
C       -9.47611774      12.91412914       7.87965225
C      -10.35347053      12.63181304       8.92425331
Br     -11.34506897      14.02865304       9.72117415
C      -10.49195702      11.32834358       9.39395070
C       -9.74898864      10.30001363       8.80592283
C       -2.63053870       3.97274444       2.38938120
C       -1.82418867       3.16766192       1.58120595
H       -2.52690080       0.14141148       2.97530991
H       -3.94824706       1.55671549       4.40064261
H       -3.61944546       4.67396222       5.09963157
H       -5.06823399       3.66772523       4.74794157
H       -5.55307235       5.42776383       6.24689969
H       -6.89898418       7.21300139       7.23394331
H       -7.21001696       9.13851253       3.38496142
H       -5.84026310       7.34200070       2.39056522
H       -8.41688860      10.08770890       5.25349374
H       -8.02265348      12.11970594       6.51502526
H       -9.35353640      13.93105703       7.51713546
H      -11.16239959      11.10043715      10.21872396
H       -9.84327540       9.28427627       9.18085710
H       -2.64466316       5.04830277       2.21980216
H       -1.22814698       3.62412236       0.79547914
C        1.79160710      -1.79160710       1.79160710
C        1.98515635      -3.13012981       1.45808023
C        2.79113950      -3.93732584       2.26544146
C        3.40075041      -3.41461460       3.41647385
C        4.30368298      -4.28842631       4.26076161
O        4.14411157      -3.95765160       5.64158405
C        4.94253651      -4.60970655       6.53832259
C        5.85712870      -5.62107358       6.24345462
C        6.61713468      -6.20054001       7.26668674
C        6.45641242      -5.77345894       8.58807041
C        5.53846070      -4.76822552       8.89095248
C        4.78779607      -4.18919277       7.86402052
C        7.25468473      -6.36828259       9.67865630
N        8.24025332      -7.17111471       9.43770103
C        8.97899970      -7.68738098      10.51467845
C        9.43323686      -6.90028773      11.58032792
C       10.21293589      -7.45792607      12.59903718
C       10.56039764      -8.80581624      12.54332300
Br      11.63391887      -9.55584765      13.90512964
C       10.13341348      -9.59916715      11.48167068
C        9.34628712      -9.03641360      10.47222439
C        3.20777524      -2.05899335       3.72589575
C        2.40075966      -1.25119903       2.92109784
H        1.51599110      -3.55391548       0.57371560
H        2.93693720      -4.97947723       1.98919073
H        5.33831632      -4.11581642       3.93890651
H        4.03248546      -5.34076393       4.11065139
H        6.00794085      -5.98655057       5.23324445
H        7.33064196      -6.98687911       7.02840782
H        5.40314587      -4.41914449       9.91120054
H        4.07621566      -3.40023769       8.09637567
H        6.96555802      -6.08417919      10.70835404
H        9.19996759      -5.84117623      11.61624085
H       10.55374402      -6.83018308      13.41780179
H       10.41214295     -10.64814182      11.42127593
H        9.02473373      -9.64935866       9.63431637
H        3.68369624      -1.62509984       4.60397201
H        2.25692386      -0.20664708       3.18417755
C       -0.00445707       0.01189536      -1.78238275
H       -0.66409135       0.67374010      -2.43557963
H        0.65740317      -0.63156657      -2.45157240
C       -0.90989263      -0.90692880      -0.91072765
C        0.90977584       0.90977584      -0.90977584
C       -0.00465871       1.77757030       0.00794375
H       -0.66225468       2.44313916      -0.64384735
H        0.64322798       2.43503045       0.67728295
C       -1.78241447       0.00034974      -0.00472694
H       -2.45427497      -0.65498947       0.64260836
H       -2.43311707       0.67328779      -0.65473579
C       -0.91132561       0.90220522       0.91563759
C       -0.01476271      -0.02253852       1.78660255
H       -0.67934791      -0.69751639       2.42135241
H        0.63392994       0.61504881       2.47327442
C        0.01484550      -1.77751727      -0.01636693
H        0.67870853      -2.42144646      -0.68295456
H       -0.62264859      -2.45592969       0.64226336
C        1.78714474       0.01002794       0.00389507
H        2.44202412       0.67113390       0.66197326
H        2.45385902      -0.65136977      -0.64189061
C        0.91606151      -0.90478549       0.90901405
