150
Properties=species:S:1:pos:R:3 pbc="F F F"
C        3.70702914       5.43386606      -4.67389044
O        4.16731782       4.14422272      -4.28508209
C        3.36534189       3.41799819      -3.44279060
C        2.33013996       3.97360913      -2.68222777
C        1.54016061       3.16141324      -1.86406092
C        1.79326747       1.79326747      -1.79326747
C        2.83499436       1.22376066      -2.51907569
C        3.62758891       2.03800872      -3.33745205
C        4.73633883       1.44277674      -4.11745263
N        5.05640183       0.18167149      -4.06544873
N        6.09221151      -0.14713520      -4.88767861
C        6.71061759      -1.37464338      -5.01413068
O        7.68609883      -1.44444024      -5.77127656
C        6.28234165      -2.59855175      -4.27870847
C        5.04727528      -2.75766205      -3.64302847
C        4.74428623      -3.94317810      -2.95943513
C        5.66969592      -4.98470329      -2.92292085
Br       5.26639727      -6.57080531      -1.97687989
C        6.88929503      -4.86170796      -3.57990398
C        7.19057267      -3.67518003      -4.25288532
H        4.30392048       5.75503067      -5.53191381
H        3.86077700       6.15568613      -3.86538971
H        2.65811131       5.41434846      -4.99228305
H        2.11565923       5.03891135      -2.70052408
H        0.73312133       3.60799454      -1.28620266
H        3.03013070       0.15713569      -2.45309832
H        5.30151666       2.13348980      -4.76900798
H        6.53555882       0.58124197      -5.43885380
H        4.29323631      -1.97758338      -3.67318186
H        3.78407731      -4.03974476      -2.46040142
H        7.61306681      -5.67404587      -3.57177311
H        8.14938881      -3.59304813      -4.76295029
C       -4.35815305      -3.88963600      -5.56699658
O       -4.28492077      -4.14343372      -4.16826813
C       -3.43155386      -3.36304076      -3.43153606
C       -2.40078975      -2.59713275      -3.98805437
C       -1.58721326      -1.80738776      -3.17103375
C       -1.79326747      -1.79326747      -1.79326747
C       -2.79401190      -2.56843753      -1.21538128
C       -3.60797096      -3.36108114      -2.03399758
C       -4.67855441      -4.18705180      -1.43096199
N       -4.89843764      -4.25571070      -0.14937371
N       -5.95171082      -5.05690644       0.17586235
C       -6.39750575      -5.39126220       1.43866306
O       -7.33346382      -6.19601226       1.51654094
C       -5.80291795      -4.85615641       2.69657600
C       -4.97061070      -3.73536809       2.77333709
C       -4.44457178      -3.32042999       4.00445852
C       -4.76301975      -4.01497845       5.17008472
Br      -4.02923533      -3.46699527       6.82375874
C       -5.61878416      -5.11018689       5.12148000
C       -6.13406286      -5.52541195       3.89119684
H       -5.25265269      -4.38920128      -5.94901099
H       -3.48873220      -4.31350378      -6.07961686
H       -4.46179700      -2.81981097      -5.78313484
H       -2.20131656      -2.59735302      -5.05642508
H       -0.79599834      -1.21046965      -3.62085054
H       -2.94379792      -2.55708292      -0.13948386
H       -5.30661700      -4.76286481      -2.13453263
H       -6.45250702      -5.53888659      -0.56426098
H       -4.72277170      -3.15582252       1.88975943
H       -3.78837921      -2.45521996       4.03886519
H       -5.88721848      -5.65049299       6.02691742
H       -6.80300961      -6.38461377       3.86833241
C       -4.02221790       4.19315196       5.59941577
O       -4.27377911       4.12270307       4.20014044
C       -3.41557221       3.36617731       3.44438115
C       -2.14903167       2.95846136       3.87848383
C       -1.34166106       2.16682036       3.05715336
C       -1.79326747       1.79326747       1.79326747
C       -3.03733129       2.21046333       1.33003609
C       -3.84544407       3.00517066       2.15243495
C       -5.17271267       3.45187784       1.67197769
N       -5.63879694       3.17715648       0.48756863
N       -6.89168888       3.66828382       0.27278221
C       -7.63179719       3.60911081      -0.89080311
O       -8.72720843       4.18333466      -0.89760795
C       -7.17544209       2.91651606      -2.12945978
C       -6.13418488       1.98523059      -2.18677377
C       -5.76625032       1.40069474      -3.40640180
C       -6.45066945       1.73174886      -4.57450484
Br      -5.93268824       0.96062634      -6.22084272
C       -7.51361893       2.62766026      -4.53378815
C       -7.87151064       3.21429158      -3.31752424
H       -4.92065085       4.59125205       6.07896206
H       -3.19544408       4.88018203       5.80622674
H       -3.83098700       3.20336626       6.03038956
H       -1.75846450       3.24533172       4.85129843
H       -0.36311958       1.85054409       3.41365486
H       -3.37930226       1.92052792       0.34053452
H       -5.77442913       4.04770302       2.38188229
H       -7.34322796       4.20696461       1.00546203
H       -5.59684573       1.68486477      -1.29287571
H       -4.94472395       0.69013688      -3.43012685
H       -8.06555231       2.88162418      -5.43638244
H       -8.70596857       3.91403264      -3.30071024
C        3.63323673      -5.29306017       4.88848873
O        4.18570785      -4.13077686       4.28013790
C        3.36947884      -3.40807872       3.44857312
C        2.18426362      -3.90623197       2.89548126
C        1.39313662      -3.09769472       2.07480343
C        1.79326747      -1.79326747       1.79326747
C        2.98190607      -1.28638403       2.30954061
C        3.77539396      -2.09726455       3.13039116
C        5.04022536      -1.56763272       3.68871012
N        5.49619716      -0.37525923       3.43206566
N        6.66362046      -0.09315902       4.07597543
C        7.43302302       1.04735460       3.96443647
O        8.50203001       1.07495502       4.58586015
C        7.05716645       2.22261186       3.12794378
C        5.77571614       2.46909826       2.62602382
C        5.52555664       3.59596844       1.83095505
C        6.55357685       4.49345655       1.54779317
Br       6.21673669       5.99713052       0.45286568
C        7.82687791       4.28707018       2.06768332
C        8.07382140       3.15818739       2.85264396
H        4.29723940      -5.58797277       5.70565280
H        3.59222532      -6.11872556       4.17090196
H        2.64565063      -5.09683682       5.32225536
H        1.85067549      -4.92392239       3.08049677
H        0.46957964      -3.49750117       1.66023771
H        3.29026282      -0.27040842       2.07969347
H        5.60218124      -2.24622250       4.35561070
H        7.08789526      -0.80436591       4.66339343
H        4.94616464       1.80534215       2.84801230
H        4.52546179       3.76033130       1.43960348
H        8.63335865       4.98918687       1.86662228
H        9.07570751       3.00950952       3.25309298
C       -0.00445707       0.01189536      -1.78238275
H       -0.66409135       0.67374010      -2.43557963
H        0.65740317      -0.63156657      -2.45157240
C       -0.90989263      -0.90692880      -0.91072765
C        0.90977584       0.90977584      -0.90977584
C       -0.00465871       1.77757030       0.00794375
H       -0.66225468       2.44313916      -0.64384735
H        0.64322798       2.43503045       0.67728295
C       -1.78241447       0.00034974      -0.00472694
H       -2.45427497      -0.65498947       0.64260836
H       -2.43311707       0.67328779      -0.65473579
C       -0.91132561       0.90220522       0.91563759
C       -0.01476271      -0.02253852       1.78660255
H       -0.67934791      -0.69751639       2.42135241
H        0.63392994       0.61504881       2.47327442
C        0.01484550      -1.77751727      -0.01636693
H        0.67870853      -2.42144646      -0.68295456
H       -0.62264859      -2.45592969       0.64226336
C        1.78714474       0.01002794       0.00389507
H        2.44202412       0.67113390       0.66197326
H        2.45385902      -0.65136977      -0.64189061
C        0.91606151      -0.90478549       0.90901405
