158
Properties=species:S:1:pos:R:3 pbc="F F F"
C        3.70702914       5.43386606      -4.67389044
O        4.16731782       4.14422272      -4.28508209
C        3.36534189       3.41799819      -3.44279060
C        2.33013996       3.97360913      -2.68222777
C        1.54016061       3.16141324      -1.86406092
C        1.79326747       1.79326747      -1.79326747
C        2.83499436       1.22376066      -2.51907569
C        3.62758891       2.03800872      -3.33745205
C        4.73633883       1.44277674      -4.11745263
N        5.05640183       0.18167149      -4.06544873
N        6.09221151      -0.14713520      -4.88767861
C        6.71061759      -1.37464338      -5.01413068
O        7.68609883      -1.44444024      -5.77127656
C        6.28234165      -2.59855175      -4.27870847
C        5.04727528      -2.75766205      -3.64302847
C        4.74428623      -3.94317810      -2.95943513
C        5.66969592      -4.98470329      -2.92292085
C        6.88929503      -4.86170796      -3.57990398
C        7.19057267      -3.67518003      -4.25288532
H        4.30392048       5.75503067      -5.53191381
H        3.86077700       6.15568613      -3.86538971
H        2.65811131       5.41434846      -4.99228305
H        2.11565923       5.03891135      -2.70052408
H        0.73312133       3.60799454      -1.28620266
H        3.03013070       0.15713569      -2.45309832
H        5.30151666       2.13348980      -4.76900798
H        6.53555882       0.58124197      -5.43885380
H        4.29323631      -1.97758338      -3.67318186
H        3.78407731      -4.03974476      -2.46040142
H        7.61306681      -5.67404587      -3.57177311
H        8.14938881      -3.59304813      -4.76295029
C        5.36247507      -6.19294841      -2.20225512
C        5.10517760      -7.20485369      -1.59869758
Br       4.68914936      -8.84101895      -0.62279607
C       -4.10309057      -4.10739764      -5.60429741
O       -4.27773545      -4.12715004      -4.19173713
C       -3.41988722      -3.36477356      -3.44146989
C       -2.20410146      -2.86250260      -3.91937281
C       -1.39508332      -2.07156721      -3.09898424
C       -1.79326747      -1.79326747      -1.79326747
C       -2.98446968      -2.30527883      -1.28808220
C       -3.79412303      -3.09925571      -2.10967093
C       -5.06569353      -3.64637151      -1.58450316
N       -5.47751098      -3.46312981      -0.36288127
N       -6.68771331      -4.03592318      -0.10911843
C       -7.36224861      -4.08209276       1.09423648
O       -8.42285024      -4.71748961       1.12740472
C       -6.87396406      -3.43250179       2.34396749
C       -5.88297956      -2.44770772       2.39804558
C       -5.47808984      -1.90986448       3.62741106
C       -6.07576413      -2.34211521       4.80996586
C       -7.08933695      -3.29378094       4.77562683
C       -7.48390947      -3.83332116       3.54895267
H       -5.00462732      -4.52968198      -6.05655566
H       -3.25356857      -4.73388933      -5.89439495
H       -3.99055822      -3.08646363      -5.98772096
H       -1.85482185      -3.07360380      -4.92666900
H       -0.45703018      -1.68110009      -3.48918825
H       -3.28451583      -2.08924733      -0.26660155
H       -5.67390938      -4.23636892      -2.29373614
H       -7.15060589      -4.55914247      -0.84590624
H       -5.41460551      -2.06927016       1.49504088
H       -4.69614757      -1.15585323       3.64726683
H       -7.57427055      -3.62726400       5.69074050
H       -8.27893291      -4.57766136       3.53730330
C       -5.64249340      -1.80174057       6.07245219
C       -5.27962916      -1.34917682       7.12978449
Br      -4.69290837      -0.61741950       8.83940139
C       -4.21879944       3.99972216       5.59626403
O       -4.28188772       4.13415619       4.18057871
C       -3.42550739       3.36353302       3.43709026
C       -2.28944881       2.73583129       3.96069677
C       -1.47825522       1.94561050       3.14176906
C       -1.79326747       1.79326747       1.79326747
C       -2.90207256       2.43071184       1.24504631
C       -3.71377247       3.22392020       2.06535700
C       -4.89843631       3.90391742       1.49421447
N       -5.22668838       3.84112585       0.23570782
N       -6.36945969       4.52245240      -0.05915717
C       -6.94392614       4.70678729      -1.30060854
O       -7.95048940       5.42298801      -1.36054227
C       -6.40836202       4.11269858      -2.55856223
C       -5.48934051       3.06068449      -2.61738330
C       -5.03026695       2.58270532      -3.85242901
C       -5.50222236       3.14353811      -5.03784699
C       -6.44455643       4.16576966      -5.00283504
C       -6.89304062       4.64483200      -3.76959465
H       -5.11998178       4.45689513       6.01398806
H       -3.35150574       4.53626593       5.99408117
H       -4.20973747       2.94828572       5.90671962
H       -2.00482453       2.84652949       5.00374063
H       -0.60358637       1.45684241       3.56688974
H       -3.13699510       2.31232308       0.19104653
H       -5.51576551       4.48677242       2.20147651
H       -6.84919369       5.02569447       0.68076644
H       -5.12050135       2.58340420      -1.71507076
H       -4.30521806       1.77388923      -3.87437331
H       -6.83215073       4.60049408      -5.92185077
H       -7.63115707       5.44563038      -3.75749648
C       -5.01254780       2.66322338      -6.30398939
C       -4.60244535       2.26095979      -7.36438365
Br      -3.93934438       1.61053359      -9.07895149
C        3.80806979      -5.52567998       4.48103586
O        4.15227937      -4.15830547       4.28603778
C        3.36339963      -3.42641702       3.43631403
C        2.48579660      -3.99443921       2.50574105
C        1.69616658      -3.17921721       1.69025099
C        1.79326747      -1.79326747       1.79326747
C        2.67932622      -1.20676727       2.69173723
C        3.47175742      -2.02376662       3.50752563
C        4.41531763      -1.41119034       4.47006022
N        4.58911474      -0.12614055       4.58826676
N        5.48742953       0.21073439       5.55605977
C        5.94111047       1.47294279       5.88193721
O        6.81700469       1.55533204       6.75126248
C        5.45179376       2.72294884       5.23365344
C        4.28000258       2.82520848       4.47784760
C        3.91348615       4.04434821       3.89140532
C        4.70921112       5.17412627       4.07282862
C        5.85926542       5.10341752       4.85164314
C        6.22532159       3.88434242       5.42729880
H        4.34531316      -5.88086096       5.36469084
H        4.12913798      -6.12771756       3.62499730
H        2.73655212      -5.65355217       4.67463852
H        2.39686225      -5.07111246       2.38711995
H        1.01198539      -3.63707327       0.97825987
H        2.75399494      -0.12522781       2.76114196
H        4.98615575      -2.11046287       5.10739582
H        5.95287522      -0.52673378       6.07604560
H        3.62355764       1.97232110       4.33759825
H        3.00615448       4.09761787       3.29619736
H        6.47973375       5.98241376       5.01347406
H        7.12843152       3.84389006       6.03474950
C        4.33973522       6.41961249       3.45165905
C        4.03029915       7.46270719       2.93142953
Br       3.52996719       9.14930311       2.09026241
C       -0.00445707       0.01189536      -1.78238275
H       -0.66409135       0.67374010      -2.43557963
H        0.65740317      -0.63156657      -2.45157240
C       -0.90989263      -0.90692880      -0.91072765
C        0.90977584       0.90977584      -0.90977584
C       -0.00465871       1.77757030       0.00794375
H       -0.66225468       2.44313916      -0.64384735
H        0.64322798       2.43503045       0.67728295
C       -1.78241447       0.00034974      -0.00472694
H       -2.45427497      -0.65498947       0.64260836
H       -2.43311707       0.67328779      -0.65473579
C       -0.91132561       0.90220522       0.91563759
C       -0.01476271      -0.02253852       1.78660255
H       -0.67934791      -0.69751639       2.42135241
H        0.63392994       0.61504881       2.47327442
C        0.01484550      -1.77751727      -0.01636693
H        0.67870853      -2.42144646      -0.68295456
H       -0.62264859      -2.45592969       0.64226336
C        1.78714474       0.01002794       0.00389507
H        2.44202412       0.67113390       0.66197326
H        2.45385902      -0.65136977      -0.64189061
C        0.91606151      -0.90478549       0.90901405
