181
Properties=species:S:1:pos:R:3 pbc="F F F"
C        0.00000000       0.00000000       0.00000000
C        0.88215191       0.88215191      -0.88215191
C        0.91373175       0.67047995      -2.26056740
C        1.71953905       1.47562519      -3.06749867
C        2.49216449       2.48719535      -2.49460471
C        2.45486612       2.69096783      -1.11166469
C        3.25322314       3.75822466      -0.47971462
N        4.04167813       4.52294480      -1.16402842
N        4.69041574       5.48167868      -0.44426154
C        5.51621840       6.39344316      -1.08421725
O        5.84791875       6.35424394      -2.26411813
C        6.02164472       7.50100911      -0.22320442
C        5.26679453       8.00504273       0.84616111
C        5.76001252       9.05639826       1.62121662
C        7.00011156       9.62357008       1.32391986
C        7.74662689       9.14769654       0.23749476
C        7.25758261       8.08130374      -0.53005639
C        9.08202760       9.71109834      -0.10228309
O        9.89942119       8.98151782      -0.65705554
N        9.27496266      11.04896287       0.23094650
N       10.39795774      11.77647245      -0.08731696
C       11.53697656      11.15953292      -0.03879665
C       12.80083477      11.80334818      -0.44358956
C       13.96558340      11.02822806      -0.44397090
C       15.17747537      11.59641354      -0.83597927
C       15.22383714      12.93606131      -1.22373863
C       14.05654545      13.70203886      -1.21957584
Br      14.13000894      15.51596367      -1.74854388
C       12.83941745      13.14369224      -0.83230994
C        1.64750710       1.89079778      -0.29895476
H        0.31680507      -0.11631542      -2.71512713
H        1.74709269       1.31633298      -4.14300644
H        3.11810388       3.11337777      -3.12873754
H        3.13478818       3.87999885       0.61217707
H        4.56895303       5.50678009       0.55988404
H        4.27914703       7.61273610       1.07281267
H        5.17449424       9.43662628       2.45576145
H        7.37593120      10.42029096       1.96123107
H        7.83961924       7.70319078      -1.37097054
H        8.45150264      11.62778672       0.36425722
H       11.63210555      10.12256921       0.32654736
H       13.93563082       9.98000651      -0.15418899
H       16.08279220      10.99429733      -0.84509426
H       16.17135715      13.37152097      -1.53096320
H       11.93112233      13.73986615      -0.83611452
H        1.61363453       2.04777816       0.77514903
C       -0.88215191      -0.88215191      -0.88215191
C       -2.26308848      -0.89613532      -0.68555530
C       -3.07002692      -1.70192280      -1.49071318
C       -2.49465930      -2.49208202      -2.48722322
C       -1.10922216      -2.47234253      -2.67593396
C       -0.47447797      -3.28950464      -3.72717983
N       -1.15906683      -4.07884498      -4.49073955
N       -0.43604418      -4.74616400      -5.43414777
C       -1.07507317      -5.57498006      -6.34382558
O       -2.25896686      -5.89316669      -6.31414727
C       -0.20757689      -6.10222847      -7.43605288
C        0.87565727      -5.36491570      -7.93641772
C        1.65672224      -5.87837976      -8.97353664
C        1.35187498      -7.12137717      -9.53025960
C        0.25198756      -7.85048222      -9.05833401
C       -0.52178672      -7.34110629      -8.00604974
C       -0.09644179      -9.18825812      -9.61070912
O       -0.66833676      -9.99127195      -8.87838583
N        0.24937141      -9.39979582     -10.94255462
N       -0.07336048     -10.52726321     -11.66112346
C       -0.04438560     -11.65978572     -11.03113481
C       -0.45613444     -12.92620799     -11.66543009
C       -0.47809008     -14.08214987     -10.87754241
C       -0.87731096     -15.29590871     -11.43664852
C       -1.25074067     -15.35294604     -12.77995037
C       -1.22507664     -14.19440105     -13.55868247
Br      -1.73476080     -14.28227484     -15.37748085
C       -0.83043046     -12.97546434     -13.00952483
C       -0.29643347      -1.66512293      -1.87570325
H       -2.71961600      -0.28547140       0.08947062
H       -4.14746952      -1.71581200      -1.34315059
H       -3.12878844      -3.11793361      -3.11349714
H        0.61994728      -3.18450723      -3.83805000
H        0.56961161      -4.63608993      -5.44937075
H        1.10897975      -4.37551161      -7.55253859
H        2.50190536      -5.30640081      -9.35086362
H        1.99371104      -7.51309116     -10.31561096
H       -1.37327612      -7.90955726      -7.63094717
H        0.39825897      -8.58437615     -11.52891496
H        0.30839484     -11.74735529      -9.98916695
H       -0.19958951     -14.04369279      -9.82654401
H       -0.90318985     -16.19428693     -10.82470701
H       -1.56370123     -16.30181952     -13.20832057
H       -0.81750192     -12.07389909     -13.61570200
H        0.77965038      -1.64487425      -2.02103978
C       -0.88215191       0.88215191       0.88215191
C       -0.61326242       0.98442118       2.24709550
C       -1.41871552       1.78984813       3.05409926
C       -2.49059967       2.48795863       2.49540626
C       -2.75306140       2.37815259       1.12628466
C       -3.87289197       3.11155736       0.50671310
N       -4.67499332       3.85382970       1.19982833
N       -5.64319268       4.49087318       0.48229010
C       -6.52226333       5.35706745       1.11454803
O       -6.61567852       5.52492926       2.32567305
C       -7.41260603       6.13086235       0.20238986
C       -6.99879748       6.50996078      -1.08308211
C       -7.84911160       7.25155549      -1.90547293
C       -9.10953556       7.63517580      -1.44494957
C       -9.51860119       7.28839253      -0.15016506
C       -8.67026181       6.52995403       0.66872689
C      -10.86163627       7.66059488       0.37317788
O      -11.37833661       6.93827010       1.22138784
N      -11.40853822       8.83072510      -0.14628428
N      -12.58919341       9.39388119       0.27867256
C      -13.54912644       8.58475194       0.60142776
C      -14.82995331       9.06161379       1.15620541
C      -15.76994752       8.10742348       1.56041136
C      -16.98632933       8.51850095       2.10503791
C      -17.26185010       9.87953900       2.24224798
C      -16.31805158      10.82459110       1.83551748
Br     -16.70062772      12.66641508       2.02747368
C      -15.09801069      10.42495365       1.29245529
C       -1.94829830       1.57646805       0.31249329
H        0.21823426       0.44272076       2.69113029
H       -1.21302460       1.87472508       4.11868242
H       -3.11509938       3.11597691       3.12914289
H       -3.98613851       3.00365788      -0.58718643
H       -5.71575294       4.31077740      -0.51068127
H       -6.00650225       6.26356952      -1.45100131
H       -7.52663480       7.53419425      -2.90546999
H       -9.76499004       8.18552307      -2.11552203
H       -8.98872134       6.25140979       1.67364942
H      -10.77518837       9.50484575      -0.56500197
H      -13.47313826       7.49264317       0.46234596
H      -15.55793046       7.04438160       1.46751425
H      -17.71542458       7.77917184       2.42758737
H      -18.21076911      10.19270537       2.67036684
H      -14.36236956      11.16205015       0.98268329
H       -2.14716464       1.49084744      -0.75174843
C        0.88215191      -0.88215191       0.88215191
C        2.23566037      -1.03017543       0.57894330
C        3.04253687      -1.83611153       1.38401450
C        2.49422441      -2.49268743       2.48705271
C        1.13602389      -2.33918399       2.78229077
C        0.53130699      -3.01315230       3.94670314
N        1.21439780      -3.79553436       4.71871920
N        0.52458910      -4.32162645       5.77014042
C        1.17185977      -5.12775173       6.69426731
O        2.31996135      -5.54778291       6.59853657
C        0.36241754      -5.49055967       7.89288103
C       -0.61215971      -4.62570625       8.41212961
C       -1.33940455      -4.98660290       9.54799581
C       -1.08708251      -6.20327826      10.18356604
C       -0.09287467      -7.05916226       9.69054108
C        0.62550376      -6.70289842       8.54054056
C        0.19486637      -8.37405482      10.32648784
O        0.63648544      -9.27858136       9.62292775
N       -0.05092454      -8.44917172      11.69473185
N        0.24219142      -9.53984950      12.47970623
C        0.06979010     -10.71194034      11.95357569
C        0.43309335     -11.95492948      12.65974968
C        0.29586279     -13.16713475      11.97478482
C        0.64442922     -14.36268788      12.60275109
C        1.12616148     -14.34522388      13.91225172
C        1.25912848     -13.13083852      14.58819315
Br       1.91458231     -13.11811601      16.36181816
C        0.91636914     -11.92974942      13.96930107
C        0.32387347      -1.53093367       1.98245250
H        2.67077793      -0.52415460      -0.27931575
H        4.09884431      -1.95410133       1.15348646
H        3.12833324      -3.11921651       3.11266944
H       -0.53781650      -2.80611891       4.13430754
H       -0.46418465      -4.12473514       5.85529858
H       -0.79864731      -3.65337093       7.96434683
H       -2.10119332      -4.31612275       9.94042964
H       -1.68804825      -6.47511514      11.04792420
H        1.39402561      -7.37024047       8.14951447
H       -0.08398229      -7.58018995      12.21882447
H       -0.37698581     -10.85097714      10.95413607
H       -0.06795469     -13.18809933      10.94968167
H        0.54656466     -15.30551918      12.07009995
H        1.39876749     -15.28062817      14.39444565
H        1.02685240     -10.98532071      14.49492989
H       -0.73077299      -1.40692051       2.21011614
