125
Properties=species:S:1:pos:R:3 pbc="F F F"
C        0.00000000       0.00000000       0.00000000
C        0.88161977       0.88161977      -0.88161977
C        0.91647499       0.66900772      -2.25778914
C        1.73292645       1.47204604      -3.05883560
C        2.50921729       2.48846763      -2.49472666
C        2.47528957       2.68050398      -1.10921673
C        1.65656778       1.88473129      -0.30230123
N        3.36240227       3.22467503      -3.33062380
C        3.22857488       4.51601198      -3.35525962
C        4.09305132       5.36261123      -4.22796422
C        3.89043209       6.75958958      -4.29127822
C        2.79216233       7.40732365      -3.48069403
C        4.75994952       7.52620746      -5.10680104
Cl       4.57132600       9.26001221      -5.17136490
C        5.79279437       6.93201801      -5.87716657
C        6.66790606       7.80698631      -6.74516088
C        5.95282168       5.53603953      -5.81011594
Br       7.30487705       4.63385731      -6.82140701
C        5.11546320       4.76274044      -4.98893363
O        5.33210386       3.40421259      -4.95493480
H        0.32604419      -0.12030496      -2.71524623
H        1.77471276       1.29625896      -4.13104653
H        3.10133662       3.43971619      -0.64930101
H        1.64336204       2.04555262       0.77229581
H        2.46762116       5.01033391      -2.72888685
H        1.84311457       6.88273010      -3.63424153
H        2.58796005       8.44436822      -3.75458568
H        3.05536475       7.39058327      -2.41793351
H        7.46259900       7.27309701      -7.26752763
H        7.16694761       8.56745735      -6.13487386
H        6.06067198       8.29484889      -7.51544049
H        4.66940433       2.99682149      -4.35219817
C       -0.88161977      -0.88161977      -0.88161977
C       -1.89276723      -0.30431729      -1.64618733
C       -2.70342440      -1.11695759      -2.44342609
C       -2.50647781      -2.50020811      -2.48572566
C       -1.49658331      -3.06751880      -1.70090817
C       -0.67807911      -2.26016793      -0.90535326
N       -3.38713531      -3.28113523      -3.24943056
C       -2.88384743      -4.04502786      -4.17097119
C       -3.75976587      -4.89483805      -5.02902285
C       -3.20115587      -5.67045715      -6.06968686
C       -1.71258824      -5.64082345      -6.32676833
C       -4.06899309      -6.48934192      -6.83462301
Cl      -3.40827522      -7.49852357      -8.09590432
C       -5.46927584      -6.52449768      -6.60820543
C       -6.33969256      -7.40188619      -7.47847450
C       -5.99665509      -5.72240929      -5.57991278
Br      -7.87304978      -5.68454511      -5.20254647
C       -5.14872269      -4.92238441      -4.79603017
O       -5.72340230      -4.17198226      -3.79586668
H       -2.06690492       0.76805752      -1.62213806
H       -3.50437282      -0.67015432      -3.02749112
H       -1.35459572      -4.14437043      -1.69138766
H        0.10040837      -2.71682994      -0.30019728
H       -1.79414847      -4.07644436      -4.33624910
H       -1.35678533      -4.60734203      -6.39595884
H       -1.41322161      -6.10513031      -7.26856204
H       -1.18553121      -6.15930010      -5.51905022
H       -7.39577782      -7.40123073      -7.20621509
H       -6.01237459      -8.44506931      -7.41183492
H       -6.28535160      -7.06587703      -8.51973273
H       -5.01555709      -3.65957803      -3.34328887
C       -0.88161977       0.88161977       0.88161977
C       -0.77871742       2.26813107       0.79642336
C       -1.58059418       3.07027170       1.61294221
C       -2.48742427       2.49636273       2.50862457
C       -2.56905278       1.10217760       2.59377990
C       -1.77409357       0.29347817       1.77602857
N       -3.22294545       3.34109329       3.35366235
C       -4.51843485       3.25842545       3.32298618
C       -5.36580619       4.13241418       4.18540640
C       -6.77455070       4.07475762       4.09199156
C       -7.43491910       3.13214649       3.11311442
C       -7.53743578       4.89828570       4.95723654
Cl      -9.28002317       4.81786698       4.90481295
C       -6.93192497       5.79164816       5.87840582
C       -7.80631995       6.65969628       6.75403702
C       -5.52705097       5.84208000       5.92984618
Br      -4.61103044       7.02364323       7.12546769
C       -4.75466892       5.01601968       5.09644866
O       -3.38546077       5.10107591       5.20471455
H       -0.07514794       2.73408187       0.11175566
H       -1.48925464       4.15247685       1.56028677
H       -3.23984810       0.63890248       3.31160323
H       -1.84823285      -0.78767616       1.85606216
H       -5.01601149       2.53757052       2.65325992
H       -6.99670700       3.24734381       2.11603538
H       -8.50301634       3.31052228       2.97337533
H       -7.31290178       2.09830572       3.45267403
H       -7.25850730       7.28284949       7.46186685
H       -8.47571223       6.03662045       7.35694614
H       -8.39868131       7.33991817       6.13236188
H       -2.98136091       4.47892533       4.55813776
C        0.88161977      -0.88161977       0.88161977
C        1.95662400      -1.56662642       0.32002143
C        2.75411065      -2.38027470       1.12942274
C        2.48786664      -2.50891383       2.49563111
C        1.39572475      -1.82657063       3.04271490
C        0.59700782      -1.00636222       2.24023026
N        3.27575984      -3.38819633       3.25374493
C        3.89279464      -2.91389600       4.29315584
C        4.75658825      -3.78705433       5.13998420
C        5.47204873      -3.24031874       6.22893241
C        5.37367487      -1.76531940       6.54118574
C        6.25096386      -4.11604538       7.02594878
Cl       7.10891201      -3.48517876       8.40861234
C        6.35683596      -5.50236978       6.74277322
C        7.22579944      -6.37444947       7.61980434
C        5.65083194      -6.01078340       5.63736182
Br       5.73815771      -7.86246745       5.15951620
C        4.85496567      -5.16203015       4.85014144
O        4.17715272      -5.72238172       3.79171679
H        2.17640229      -1.48571227      -0.74112909
H        3.58310206      -2.92940018       0.68951601
H        1.15062862      -1.94551591       4.09420929
H       -0.24868597      -0.48494044       2.68036438
H        3.78892635      -1.85090026       4.56701532
H        5.55076130      -1.17056837       5.63875652
H        6.11424947      -1.41142162       7.26124286
H        4.38213126      -1.53631795       6.94543232
H        7.21396443      -7.43274140       7.35651780
H        6.88909876      -6.31950007       8.66067999
H        8.26935995      -6.04780194       7.55379947
H        3.67596605      -5.01232234       3.33013560
