133
Properties=species:S:1:pos:R:3 pbc="F F F"
C        0.00000000       0.00000000       0.00000000
C        0.88161977       0.88161977      -0.88161977
C        0.91647499       0.66900772      -2.25778914
C        1.73292645       1.47204604      -3.05883560
C        2.50921729       2.48846763      -2.49472666
C        2.47528957       2.68050398      -1.10921673
C        1.65656778       1.88473129      -0.30230123
N        3.36240227       3.22467503      -3.33062380
C        3.22857488       4.51601198      -3.35525962
C        4.09305132       5.36261123      -4.22796422
C        3.89043209       6.75958958      -4.29127822
C        2.79216233       7.40732365      -3.48069403
C        4.75994952       7.52620746      -5.10680104
Cl       4.57132600       9.26001221      -5.17136490
C        5.79279437       6.93201801      -5.87716657
C        6.66790606       7.80698631      -6.74516088
C        5.95282168       5.53603953      -5.81011594
C        5.11546320       4.76274044      -4.98893363
O        5.33210386       3.40421259      -4.95493480
H        0.32604419      -0.12030496      -2.71524623
H        1.77471276       1.29625896      -4.13104653
H        3.10133662       3.43971619      -0.64930101
H        1.64336204       2.04555262       0.77229581
H        2.46762116       5.01033391      -2.72888685
H        1.84311457       6.88273010      -3.63424153
H        2.58796005       8.44436822      -3.75458568
H        3.05536475       7.39058327      -2.41793351
H        7.46259900       7.27309701      -7.26752763
H        7.16694761       8.56745735      -6.13487386
H        6.06067198       8.29484889      -7.51544049
H        4.66940433       2.99682149      -4.35219817
C        6.96986157       4.85740216      -6.57082691
C        7.82163247       4.28904336      -7.20792235
Br       9.19887399       3.37005524      -8.23805179
C       -0.88161977      -0.88161977      -0.88161977
C       -1.77928959      -0.29401190      -1.76997037
C       -2.59114432      -1.10552056      -2.56714320
C       -2.50755139      -2.49851826      -2.48634193
C       -1.61185105      -3.07441402      -1.57874521
C       -0.79251146      -2.26890467      -0.78218418
N       -3.38888988      -3.27033764      -3.25847357
C       -2.88165550      -4.14485265      -4.07333833
C       -3.75677142      -4.99334164      -4.93351371
C       -3.18638628      -5.89369563      -5.86121797
C       -1.68518159      -6.00019658      -5.99480184
C       -4.05805747      -6.70431648      -6.63058408
Cl      -3.38872726      -7.86297501      -7.75100084
C       -5.46964884      -6.61265000      -6.51968011
C       -6.34065823      -7.48998120      -7.38941383
C       -6.00584615      -5.68943155      -5.60369945
C       -5.15698130      -4.89443790      -4.81571807
O       -5.74231940      -4.02127888      -3.92765296
H       -1.86473793       0.78684073      -1.84308826
H       -3.30473828      -0.64868856      -3.24859141
H       -1.56130089      -4.15444235      -1.47461057
H       -0.10367787      -2.73204538      -0.08089560
H       -1.78889687      -4.27367216      -4.14427290
H       -1.24018098      -5.00652622      -6.11337900
H       -1.35401443      -6.56306196      -6.86983756
H       -1.26689148      -6.48852191      -5.10846813
H       -7.41081456      -7.38538969      -7.20701939
H       -6.10756069      -8.54605226      -7.21566587
H       -6.17855288      -7.24714201      -8.44526646
H       -5.03113377      -3.52889726      -3.45839296
C       -7.42765253      -5.52888874      -5.44154937
C       -8.61841536      -5.39443414      -5.30574868
Br     -10.54377816      -5.17703241      -5.08617045
C       -0.88161977       0.88161977       0.88161977
C       -0.73747027       2.26642914       0.83937244
C       -1.53976199       3.06815904       1.65588706
C       -2.48778521       2.49576112       2.50886525
C       -2.61089205       1.10267162       2.55144661
C       -1.81566061       0.29462232       1.73331738
N       -3.22340364       3.33733283       3.35696463
C       -4.51927732       3.29296145       3.28760771
C       -5.36633650       4.16650672       4.15078355
C       -6.77286264       4.15215229       4.01628495
C       -7.43088748       3.25679725       2.99249528
C       -7.53700016       4.97276148       4.88319638
Cl      -9.27891957       4.94414405       4.77963949
C       -6.93350464       5.82210805       5.84636626
C       -7.80811322       6.69012664       6.72181339
C       -5.52983765       5.83053206       5.93860745
C       -4.75720050       5.00622585       5.10371092
O       -3.38983892       5.04868186       5.25273046
H       -0.00165680       2.73090340       0.18842526
H       -1.41663628       4.14832977       1.63705221
H       -3.31483927       0.63899590       3.23651864
H       -1.92236027      -0.78576219       1.78002077
H       -5.01734262       2.60581976       2.58367955
H       -6.96103874       3.38721531       2.01183215
H       -8.48908829       3.46975664       2.82806903
H       -7.34774905       2.21075352       3.30537896
H       -7.26369091       7.27712830       7.46240442
H       -8.51182397       6.06996088       7.28749397
H       -8.36299136       7.40431472       6.10365528
H       -2.98485797       4.43350596       4.60006006
C       -4.84237298       6.67351415       6.88220351
C       -4.26662132       7.37951164       7.67246522
Br      -3.33567958       8.52104989       8.95025155
C        0.88161977      -0.88161977       0.88161977
C        1.84479682      -1.70097928       0.29749575
C        2.64202640      -2.51355507       1.10822661
C        2.48685366      -2.50814042       2.49741750
C        1.50517635      -1.69109317       3.06874076
C        0.70785780      -0.87133996       2.26440255
N        3.26479340      -3.38916985       3.26373785
C        4.00652946      -2.88864043       4.20467658
C        4.86808584      -3.76309649       5.05244444
C        5.71770834      -3.19527315       6.02831840
C        5.76594641      -1.69701057       6.21722303
C        6.49042307      -4.06885848       6.83367646
Cl       7.51398511      -3.40635028       8.08236772
C        6.45930394      -5.47739239       6.66528262
C        7.32872270      -6.34880133       7.54252922
C        5.62071181      -6.00931631       5.66894903
C        4.82985431      -5.16024259       4.87704037
O        4.01918831      -5.74242497       3.92963796
H        1.97668493      -1.72518760      -0.78088707
H        3.38250565      -3.16668816       0.65282444
H        1.34424709      -1.70320790       4.14289883
H       -0.05141310      -0.24423475       2.72379721
H        4.01282614      -1.80206887       4.39194692
H        5.91064617      -1.19452545       5.25491458
H        6.59272622      -1.35251647       6.84167126
H        4.83520738      -1.35037925       6.67829490
H        7.20884567      -7.41972954       7.37464842
H        7.08989073      -6.18109278       8.59829531
H        8.38537908      -6.12107509       7.36450718
H        3.53826094      -5.03066093       3.44950212
C        5.54249438      -7.42696548       5.42863077
C        5.47698729      -8.61424666       5.22736423
Br       5.37106786     -10.53397991       4.90193326
