182
Properties=species:S:1:pos:R:3 pbc="F F F"
C        1.79118362       1.79118362      -1.79118362
C        2.94712806       1.26511638      -2.36065442
C        3.74895450       2.07284763      -3.17256859
C        3.40960729       3.41160382      -3.40559268
C        2.24450685       3.92527664      -2.82953744
C        1.43401905       3.11592380      -2.02546171
N        4.26424770       4.15766630      -4.24303514
C        4.24621506       5.52391174      -4.43544674
O        3.56796283       6.34282335      -3.81652287
C        5.21526486       6.00368359      -5.48479266
C        6.56995858       6.38005369      -4.93478181
N        6.82055436       7.37942555      -4.14485123
N        5.77364271       8.09992368      -3.64592163
C        6.01515530       9.30591996      -3.00171101
O        7.10916392       9.85992137      -2.94308076
C        4.83968766       9.93786365      -2.33075238
C        5.08817799      10.89927304      -1.33684041
C        4.03042981      11.51406908      -0.66216911
C        2.71790158      11.17440948      -0.97964267
C        2.45353473      10.23569640      -1.97494479
C        3.51162742       9.62431073      -2.65609986
C        7.74661887       5.56296516      -5.41314732
H        3.23371403       0.23245876      -2.17936320
H        4.64873336       1.64065203      -3.60356926
H        1.92441936       4.94861278      -3.00152525
H        0.52804323       3.53216408      -1.59158267
H        5.01544773       3.63615468      -4.67876850
H        4.78267776       6.87944708      -5.98277525
H        5.32957130       5.23783368      -6.26025314
H        4.87112993       7.64146073      -3.53561916
H        6.11229700      11.16772546      -1.08372636
H        4.24446353      12.25303956       0.10749048
H        1.43044206       9.97301063      -2.23258706
H        3.26533083       8.92035784      -3.44508252
H        7.91383422       5.76703555      -6.47402551
H        7.53119750       4.49918080      -5.28083717
H        8.64992831       5.81626010      -4.85199902
C        1.62540337      11.79977967      -0.28038607
C        0.71043613      12.32352721       0.30524133
Br      -0.76898852      13.17038268       1.25215131
C       -1.79118362      -1.79118362      -1.79118362
C       -2.19976514      -3.04028128      -1.33285244
C       -3.01217225      -3.84257374      -2.13962473
C       -3.40582583      -3.40903142      -3.41194655
C       -2.99031696      -2.15132265      -3.85768131
C       -2.18629594      -1.34136625      -3.04774237
N       -4.23269754      -4.27172580      -4.16052580
C       -4.55995630      -4.15014095      -5.49547630
O       -4.08838262      -3.34327051      -6.29565592
C       -5.56025529      -5.17106989      -5.97241592
C       -4.93066260      -6.42550278      -6.52862870
N       -4.22400691      -6.50606468      -7.61475954
N       -3.89474632      -5.35452721      -8.27021450
C       -3.35373113      -5.42192119      -9.54713395
O       -3.25208075      -6.45058326     -10.20950203
C       -2.85678180      -4.13394068     -10.11758120
C       -1.94441023      -4.19567774     -11.18420348
C       -1.43151392      -3.02553635     -11.74961773
C       -1.83048972      -1.78662536     -11.25483865
C       -2.74790688      -1.70725260     -10.20901644
C       -3.26753482      -2.87806951      -9.64643368
C       -5.21834827      -7.71227209      -5.79211099
H       -1.89235511      -3.39915017      -0.35403072
H       -3.31580468      -4.81569004      -1.76145993
H       -3.29059533      -1.75917049      -4.82479157
H       -1.87879155      -0.36325730      -3.40974113
H       -4.54554382      -5.10608340      -3.67874368
H       -6.17913861      -4.71288043      -6.75288104
H       -6.24286012      -5.42973882      -5.15505919
H       -3.82121250      -4.49037897      -7.73661835
H       -1.62808985      -5.16151445     -11.57414452
H       -0.72251087      -3.09525554     -12.57224620
H       -3.06919235      -0.74236233      -9.82448507
H       -4.00204471      -2.77513954      -8.85358694
H       -6.27486649      -7.96444798      -5.91558082
H       -5.00149762      -7.58126168      -4.72845617
H       -4.60610543      -8.52931637      -6.18276562
C       -1.29739398      -0.57866685     -11.82950829
C       -0.85092630       0.43299840     -12.31079410
Br      -0.12902582       2.06877554     -13.08899256
C       -1.79118362       1.79118362       1.79118362
C       -1.39596059       3.09330657       2.08363170
C       -2.20828365       3.90026294       2.88582412
C       -3.40848488       3.40612282       3.41219609
C       -3.79389359       2.09772637       3.10770097
C       -2.98823748       1.29136852       2.29579856
N       -4.17599154       4.28472056       4.20423704
C       -5.26329570       3.95505611       4.98722174
O       -5.67465192       2.82148505       5.23117207
C       -5.93897181       5.14296918       5.62180011
C       -5.40775878       5.48371556       6.99331974
N       -5.53001536       4.75440254       8.06041323
N       -6.07007746       3.50590866       7.94350190
C       -6.43225125       2.80470698       9.08582804
O       -6.42156513       3.26784952      10.22275140
C       -6.84452267       1.38382259       8.87995842
C       -6.81246716       0.52241890       9.98940539
C       -7.17127094      -0.82132255       9.85671961
C       -7.56799400      -1.31116777       8.61512750
C       -7.62214679      -0.46630983       7.50833895
C       -7.26970471       0.88107334       7.64125997
C       -4.74379764       6.83144901       7.14748471
H       -0.46096275       3.48899754       1.69557570
H       -1.87696394       4.91273984       3.10325087
H       -4.72760845       1.67751443       3.46943451
H       -3.30858934       0.27826665       2.06493399
H       -3.83419752       5.23670020       4.25947319
H       -7.01140217       4.93009733       5.70340057
H       -5.85060535       6.01415675       4.96289602
H       -5.97806228       3.01278949       7.05735804
H       -6.50193006       0.89969369      10.96212508
H       -7.13539459      -1.47294385      10.72756187
H       -7.93924509      -0.84167063       6.53846530
H       -7.35306019       1.51435372       6.76335728
H       -5.49913912       7.61454166       7.04121450
H       -3.98439020       6.95607601       6.37074926
H       -4.26892159       6.92124947       8.12801636
C       -7.93029877      -2.69756135       8.47283170
C       -8.23372901      -3.85866597       8.35365896
Br      -8.72435006      -5.73607394       8.16096673
C        1.79118362      -1.79118362       1.79118362
C        1.23587072      -2.45701769       2.88001045
C        2.04418213      -3.26856668       3.68162190
C        3.41135838      -3.40549408       3.40995134
C        3.95444064      -2.73324869       2.31163160
C        3.14546534      -1.92908780       1.50085143
N        4.15676168      -4.24908783       4.25909963
C        5.53088676      -4.36310510       4.31158169
O        6.34831281      -3.65995750       3.71903872
C        6.01707251      -5.43964176       5.24702684
C        6.28344287      -4.95091590       6.65043531
N        7.21842521      -4.12244657       7.00395936
N        7.96559384      -3.52248982       6.03140436
C        9.11568463      -2.82711591       6.37998573
O        9.60294505      -2.80265249       7.50656851
C        9.77157944      -2.05303072       5.28369353
C       10.65671348      -1.02326846       5.64430950
C       11.28869053      -0.25344639       4.66453108
C       11.04271189      -0.51086107       3.31838077
C       10.18117186      -1.53979083       2.94321322
C        9.55296004      -2.31590405       3.92317393
C        5.43150247      -5.54351474       7.74771415
H        0.17980570      -2.35133301       3.11439728
H        1.58856818      -3.77589140       4.52849507
H        5.00254231      -2.82819188       2.04382320
H        3.58535401      -1.41942126       0.64701471
H        3.62075095      -4.75730581       4.95231416
H        6.94379701      -5.86107963       4.84002344
H        5.29349017      -6.26228492       5.27188303
H        7.55275792      -3.38461297       5.11083892
H       10.85173732      -0.81684191       6.69516960
H       11.96740108       0.54237979       4.96499132
H        9.99210707      -1.75046784       1.89346484
H        8.91210966      -3.12710458       3.59155695
H        5.68859712      -6.59933169       7.86696647
H        4.37550199      -5.45853876       7.47717472
H        5.59988041      -5.02375144       8.69455557
C       11.68571582       0.28612406       2.30597736
C       12.22423160       0.95359911       1.45808951
Br      13.09496609       2.03284981       0.08712657
C       -0.00445707       0.01189536      -1.78238275
H       -0.66409135       0.67374010      -2.43557963
H        0.65740317      -0.63156657      -2.45157240
C       -0.90989263      -0.90692880      -0.91072765
C        0.90977584       0.90977584      -0.90977584
C       -0.00465871       1.77757030       0.00794375
H       -0.66225468       2.44313916      -0.64384735
H        0.64322798       2.43503045       0.67728295
C       -1.78241447       0.00034974      -0.00472694
H       -2.45427497      -0.65498947       0.64260836
H       -2.43311707       0.67328779      -0.65473579
C       -0.91132561       0.90220522       0.91563759
C       -0.01476271      -0.02253852       1.78660255
H       -0.67934791      -0.69751639       2.42135241
H        0.63392994       0.61504881       2.47327442
C        0.01484550      -1.77751727      -0.01636693
H        0.67870853      -2.42144646      -0.68295456
H       -0.62264859      -2.45592969       0.64226336
C        1.78714474       0.01002794       0.00389507
H        2.44202412       0.67113390       0.66197326
H        2.45385902      -0.65136977      -0.64189061
C        0.91606151      -0.90478549       0.90901405
