189
Properties=species:S:1:pos:R:3 pbc="F F F"
C        0.00000000       0.00000000       0.00000000
N       -2.67033203       8.51935219      -8.25927253
C       -2.29823097       7.76185500      -7.47660861
C       -1.84369618       6.83654500      -6.52055655
C       -0.93014117       5.87907662      -6.77191771
N       -0.36614168       5.60594764      -7.99564663
O       -0.46757236       5.04732520      -5.74944450
C       -0.70271628       5.38270348      -4.42160365
C       -1.57791709       6.33937290      -4.06332029
C       -1.78603895       6.77923380      -2.63277665
C       -1.10179731       5.88036995      -1.60286291
C        0.24225535       5.37015187      -2.11136395
C        0.05785095       4.63476143      -3.42458906
C        0.47400404       3.37351603      -3.65665420
C        1.10190534       2.50900096      -2.65586002
C        2.48953954       2.49754317      -2.48658743
C        3.06936845       1.67491020      -1.51806742
C        2.26548276       0.86461713      -0.71462373
C        0.88195286       0.88195286      -0.88195286
C        0.29572902       1.69906494      -1.84665806
C       -2.39854505       7.03981579      -5.12101805
H       -2.31771692       8.11542204      -4.89965490
C       -3.87334355       6.63525584      -5.04770846
C       -4.86506083       7.61011023      -4.85100996
C       -6.21445108       7.25214019      -4.79890795
C       -6.59261157       5.91816295      -4.94538012
C       -5.61781469       4.94445648      -5.14365876
C       -4.26824765       5.29261233      -5.19606376
H       -0.91952062       5.88173034      -8.80300204
H       -0.01756873       4.65230749      -8.05143138
H       -1.39231788       7.79904236      -2.53270238
H       -2.85434059       6.82731531      -2.39352541
H       -0.96544795       6.43312642      -0.66613242
H       -1.75353945       5.02719563      -1.37412146
H        0.69639388       4.74517165      -1.33593526
H        0.92803287       6.21392466      -2.26704492
H        0.28759892       2.88809427      -4.61202328
H        3.12335986       3.12911212      -3.10480799
H        4.14876075       1.66626546      -1.38925125
H        2.72491861       0.22713285       0.03622830
H       -0.78461471       1.71213896      -1.96957324
H       -4.59717908       8.65964135      -4.74185826
H       -6.97330702       8.01640584      -4.64883080
H       -7.64503580       5.65033649      -4.90708581
H       -3.52163951       4.51678331      -5.35317131
C       -6.00435573       3.56612881      -5.29986012
C       -6.32808384       2.41177939      -5.43067877
Br      -6.85152482       0.54529400      -5.64220145
N      -11.45721062      -3.88911516       1.23803308
C      -10.38290838      -3.55387583       0.99655157
C       -9.07060967      -3.14436896       0.70157325
C       -8.08032587      -3.98465598       0.34412869
N       -8.16858919      -5.35554722       0.28868381
O       -6.82188929      -3.49455168      -0.01275638
C       -6.65799668      -2.14467022      -0.29892394
C       -7.59509701      -1.22577690      -0.00390218
C       -7.47522985       0.23206709      -0.38280875
C       -6.09469343       0.62327067      -0.91001279
C       -5.48142576      -0.49069999      -1.75164542
C       -5.40222157      -1.77138289      -0.94359698
C       -4.27267678      -2.48158801      -0.74990947
C       -2.94907175      -2.08446497      -1.23322960
C       -2.49540792      -2.48477212      -2.49349008
C       -1.23434551      -2.08570605      -2.94229451
C       -0.42500600      -1.28394942      -2.13576819
C       -0.88195286      -0.88195286      -0.88195286
C       -2.13840301      -1.27665268      -0.42639633
C       -8.84934271      -1.64164156       0.72869549
H       -9.68502138      -1.18677597       0.17443734
C       -8.86586752      -1.10701200       2.16325877
C       -9.91416113      -0.27926472       2.59736649
C       -9.94587647       0.20006295       3.90921645
C       -8.93458986      -0.14225791       4.80591627
C       -7.89252326      -0.96442501       4.38664772
C       -7.85225914      -1.44675480       3.07858551
H       -8.87876047      -5.77204107       0.88558978
H       -7.25823397      -5.80076376       0.37282758
H       -8.22460228       0.44215713      -1.15698171
H       -7.71359467       0.87551729       0.47157725
H       -6.17464976       1.54255677      -1.50171789
H       -5.43243105       0.84875783      -0.06410442
H       -4.50407206      -0.15808337      -2.11534538
H       -6.09744286      -0.66796037      -2.64359922
H       -4.27279332      -3.37925923      -0.13566392
H       -3.12111419      -3.10550266      -3.13066312
H       -0.88281464      -2.39952592      -3.92193690
H        0.55510145      -0.97839995      -2.49252466
H       -2.49176133      -0.95607222       0.55073605
H      -10.72025815      -0.00362367       1.91956129
H      -10.76428013       0.83804326       4.23430725
H       -8.97022733       0.23261304       5.82522779
H       -7.02979249      -2.08923366       2.77071104
C       -6.84838731      -1.32404414       5.31079825
C       -5.97392345      -1.62522517       6.08477432
Br      -4.55998936      -2.11220942       7.33622815
N        2.64825425       7.86766876       8.88887818
C        2.28144388       7.17884830       8.04282821
C        1.83337187       6.33742941       7.00934783
C        0.85411745       5.42344989       7.15152073
N        0.20379688       5.11606193       8.32318754
O        0.40725039       4.67948599       6.05696175
C        0.73951649       5.07434609       4.76676125
C        1.68686733       5.99582096       4.51582247
C        2.00418831       6.50219270       3.12796711
C        1.33306470       5.70495939       2.00954085
C       -0.06542336       5.24791467       2.41043314
C       -0.00115540       4.43022423       3.68582181
C       -0.50059751       3.18495359       3.81862317
C       -1.11537386       2.41696274       2.73442972
C       -2.48891404       2.49768217       2.48707392
C       -3.05534787       1.76675689       1.44024131
C       -2.25184852       0.95646049       0.63641460
C       -0.88195286       0.88195286       0.88195286
C       -0.30922862       1.60720935       1.92501405
C        2.48111600       6.58561706       5.65778772
H        2.47417722       7.67486349       5.49667374
C        3.93259713       6.09871658       5.64350130
C        4.98747339       7.02229810       5.56123465
C        6.31532228       6.58810701       5.56381233
C        6.60853718       5.22786014       5.65160855
C        5.57049494       4.30432636       5.73646912
C        4.24190036       4.72872970       5.73359909
H        0.72273944       5.31260335       9.17534786
H       -0.20051132       4.18324474       8.30241408
H        1.67504958       7.54764511       3.06683132
H        3.08585160       6.49994328       2.95240846
H        1.28400989       6.31661280       1.10120798
H        1.94830080       4.82869348       1.76738496
H       -0.50698068       4.69564476       1.57487536
H       -0.71075841       6.12094243       2.57730161
H       -0.39898139       2.63638097       4.75235411
H       -3.12193197       3.13013521       3.10521279
H       -4.12393188       1.82965227       1.25069330
H       -2.70085139       0.39066300      -0.17569124
H        0.76090388       1.54900329       2.10899808
H        4.78596211       8.09039015       5.49989249
H        7.12351014       7.31305304       5.50238673
H        7.64465984       4.90041721       5.65662913
H        3.44485082       3.99113480       5.80203113
C        5.86899093       2.89883224       5.83179190
C        6.11898133       1.72173092       5.91162472
Br       6.52319466      -0.18154236       6.04070765
N        9.88925989      -6.64978279      -2.43074998
C        8.98605211      -6.03054746      -2.07636694
C        7.88275141      -5.27412929      -1.64347534
C        6.86434114      -5.77306843      -0.91655641
N        6.70186552      -7.08989386      -0.55630679
O        5.84227648      -4.94084841      -0.45392754
C        6.00946752      -3.56144903      -0.46932570
C        7.00684415      -2.96319815      -1.14526620
C        7.25837080      -1.47375135      -1.10615065
C        6.14147923      -0.67464969      -0.43469336
C        5.54499980      -1.43182652       0.74694486
C        5.03585367      -2.78666671       0.29468106
C        3.77906145      -3.23311687       0.49199594
C        2.70717105      -2.45014802       1.10944724
C        2.49696931      -2.48563531       2.49106551
C        1.47688931      -1.72214083       3.06331593
C        0.66677846      -0.91949489       2.25845027
C        0.88195286      -0.88195286       0.88195286
C        1.89686804      -1.64147490       0.30310908
C        7.95014593      -3.79485139      -1.98270854
H        8.96376509      -3.45395270      -1.72035778
C        7.72798801      -3.56101810      -3.47938535
C        8.78118005      -3.10226805      -4.28738874
C        8.59203651      -2.90148245      -5.65692190
C        7.35141693      -3.15847724      -6.23896267
C        6.30170777      -3.61619279      -5.44760002
C        6.48124004      -3.81853570      -4.07934731
H        7.15862763      -7.76780147      -1.16121734
H        5.73006049      -7.31488275      -0.35877309
H        8.19536637      -1.30405740      -0.55999692
H        7.40541746      -1.07875536      -2.11767268
H        6.53172775       0.29461754      -0.10329933
H        5.35305377      -0.46342397      -1.16870009
H        4.76258429      -0.81486007       1.20005644
H        6.30937640      -1.57743516       1.52219090
H        3.46388767      -4.20498743       0.11884136
H        3.12632935      -3.10442746       3.12652316
H        1.31405551      -1.75251377       4.13770818
H       -0.12503064      -0.32898771       2.71186608
H        2.06331759      -1.60461569      -0.77083579
H        9.76186706      -2.90177160      -3.85931814
H        9.41596988      -2.54857362      -6.27261388
H        7.21539030      -3.00274819      -7.30575199
H        5.64851184      -4.17803245      -3.47822918
C        5.02001539      -3.88710624      -6.04548842
C        3.94659802      -4.11399625      -6.54621996
Br       2.21097291      -4.48085821      -7.35586050
