173
Properties=species:S:1:pos:R:3 pbc="F F F"
C        0.00000000       0.00000000       0.00000000
C        0.88191783       0.88191783      -0.88191783
C        2.18250943       1.17988275      -0.48130502
C        2.98991751       1.98536076      -1.28817062
C        2.50432520       2.49082432      -2.50354283
C        1.18992370       2.18217296      -2.89025880
C        0.38028462       1.38173528      -2.08125979
C        3.38188350       3.35177521      -3.38182620
S        2.88870408       5.09730998      -3.32147227
C        3.98755749       5.77227486      -4.50439750
S        3.76431552       7.34171385      -5.14770738
C        5.16935755       7.13876001      -6.12033128
C        5.74466083       8.02985858      -7.04018162
C        6.90953800       7.64196474      -7.71287063
N        7.49011932       8.48678241      -8.67058946
C        8.08523944       9.54850007      -8.21957660
C        8.70812802      10.52189026      -9.13859083
C        9.39070813      11.60860728      -8.58367327
C        9.99119881      12.54253147      -9.42924938
C        9.91190947      12.40635499     -10.81567846
C        9.22455576      11.32396533     -11.36666845
C        8.62667660      10.38489715     -10.53025939
O        7.97092865       9.35080079     -11.13945420
C        7.46335788       6.38451850      -7.48160677
C        6.88179663       5.49822320      -6.56450448
C        5.71532358       5.87816301      -5.87117939
N        5.02912208       5.10768712      -4.94744643
H        2.57687124       0.79212414       0.45414296
H        4.00279552       2.21318292      -0.96209704
H        0.78773893       2.56926169      -3.82473124
H       -0.63531291       1.15632352      -2.39531654
H        3.32389797       2.97935494      -4.41132889
H        4.42695743       3.26348349      -3.06362755
H        5.28957065       8.99525236      -7.23586454
H        8.14613788       9.76695687      -7.13639944
H        9.46007762      11.72830917      -7.50601090
H       10.37994155      13.13335678     -11.47471925
H        9.15529074      11.21017661     -12.44549015
H        7.62372344       8.76430083     -10.42875234
H        8.35534185       6.08044498      -8.02499983
H        7.31723888       4.51866939      -6.39088626
C       10.70341460      13.65887594      -8.86345464
C       11.29989531      14.59381444      -8.38960154
Br      12.26435419      16.10553092      -7.62342116
C       -0.88191783      -0.88191783      -0.88191783
C       -0.39298400      -1.35187433      -2.09883887
C       -1.19871911      -2.15955379      -2.90517599
C       -2.49457615      -2.50828556      -2.49583065
C       -2.97178179      -2.02341951      -1.26715417
C       -2.16885638      -1.21115443      -0.46326889
C       -3.36123644      -3.39187059      -3.36237788
S       -4.68119446      -2.44946058      -4.17683130
C       -5.54440435      -3.74702179      -4.97280371
S       -7.11024260      -3.51997895      -5.62351520
C       -7.13415432      -5.16449588      -6.12979864
C       -8.14906043      -5.87048800      -6.79515261
C       -7.93185029      -7.21553558      -7.11698748
N       -8.93787536      -7.96628431      -7.74333152
C       -9.17399440      -7.68991850      -8.98940322
C      -10.22884273      -8.39879271      -9.74097367
C      -10.38556915      -8.09969274     -11.09772679
C      -11.37323733      -8.75691453     -11.83282780
C      -12.20550030      -9.69989114     -11.22855148
C      -12.05077875      -9.99176595      -9.87264484
C      -11.06466440      -9.34422576      -9.13294298
O      -10.97022069      -9.68035698      -7.81060597
C       -6.73669860      -7.83511238      -6.75767218
C       -5.72894647      -7.12534366      -6.09023419
C       -5.92786116      -5.76778399      -5.76902083
N       -5.02993663      -4.94705016      -5.10726883
H        0.61039442      -1.09639977      -2.42884706
H       -0.80591921      -2.51731517      -3.85484110
H       -3.97667415      -2.27337630      -0.93168141
H       -2.55641917      -0.84260098       0.48269300
H       -3.79322951      -4.18300823      -2.73834406
H       -2.74643369      -3.88116965      -4.12646513
H       -9.08834324      -5.38783558      -7.04450873
H       -8.60083238      -6.91519942      -9.53346241
H       -9.74556216      -7.36712823     -11.58170730
H      -12.97466967     -10.21243450     -11.80091341
H      -12.69555047     -10.72322266      -9.39218436
H      -10.22349077      -9.16401611      -7.42926973
H       -6.58389519      -8.88677417      -6.99011730
H       -4.80082226      -7.61507399      -5.81089828
C      -11.53332192      -8.45972087     -13.23270239
C      -11.66739276      -8.21082118     -14.40509735
Br     -11.88417397      -7.80837143     -16.30076085
C       -0.88191783       0.88191783       0.88191783
C       -0.39372443       1.35018627       2.09978651
C       -1.19945822       2.15786513       2.90612555
C       -2.49456383       2.50828430       2.49584422
C       -2.97103216       2.02510635       1.26621696
C       -2.16811503       1.21284223       0.46232243
C       -3.36120727       3.39186943       3.36240820
S       -4.68290237       2.44996159       4.17462237
C       -5.54561612       3.74758888       4.97102486
S       -7.11232159       3.52145287       5.61996228
C       -7.13510805       5.16549114       6.12784966
C       -8.14997362       5.87182927       6.79289814
C       -7.93175203       7.21634220       7.11627913
N       -8.93765368       7.96746670       7.74237081
C       -9.17527944       7.69010252       8.98793416
C      -10.23016970       8.39927701       9.73916240
C      -10.38853497       8.09899063      11.09546307
C      -11.37627992       8.75646255      11.83023719
C      -12.20701122       9.70085982      11.22607188
C      -12.05065880       9.99392219       9.87060855
C      -11.06445354       9.34613796       9.13124164
O      -10.96836837       9.68348317       7.80933210
C       -6.73563300       7.83509056       6.75875959
C       -5.72792308       7.12498497       6.09161627
C       -5.92786223       5.76794125       5.76886251
N       -5.03009517       4.94697376       5.10718670
H        0.60907363       1.09339222       2.43053381
H       -0.80724504       2.51429804       3.85653240
H       -3.97534420       2.27638954       0.92999813
H       -2.55510545       0.84560840      -0.48438670
H       -3.79179967       4.18405115       2.73873097
H       -2.74667764       3.87980366       4.12758717
H       -9.08997973       5.38986060       7.04084723
H       -8.60342281       6.91427868       9.53179271
H       -9.74973227       7.36531457      11.57935085
H      -12.97623956      10.21359808      11.79817994
H      -12.69423081      10.72649169       9.39023499
H      -10.22177233       9.16678069       7.42822359
H       -6.58201976       8.88637015       6.99239675
H       -4.79903888       7.61407225       5.81368340
C      -11.53804417       8.45804316      13.22965785
C      -11.67352172       8.20811692      14.40167266
Br     -11.89257746       7.80400732      16.29672148
C        0.88191783      -0.88191783       0.88191783
C        2.20735521      -1.11473520       0.52160679
C        3.01470814      -1.92019483       1.32854593
C        2.50382591      -2.49081364       2.50405281
C        1.16470424      -2.24730180       2.85034942
C        0.35540142      -1.44687559       2.04100269
C        3.38070643      -3.35181747       3.38296100
S        2.95889664      -5.11099493       3.23759476
C        4.03797946      -5.78987921       4.43637118
S        3.85229145      -7.39060766       5.01083765
C        5.21065134      -7.17309471       6.04470280
C        5.78533785      -8.07722104       6.95214214
C        6.90794843      -7.67234549       7.68407944
N        7.48466536      -8.53154359       8.63128224
C        8.13748691      -9.55159844       8.16423077
C        8.76294294     -10.53606861       9.06959756
C        9.50799026     -11.57372012       8.50127829
C       10.11230351     -12.51675047       9.33392568
C        9.97554624     -12.43806470      10.72033198
C        9.22604988     -11.40476022      11.28437943
C        8.62379734     -10.45685411      10.46118169
O        7.90555786      -9.47286005      11.08276573
C        7.42041608      -6.38682807       7.52223900
C        6.83956541      -5.48784138       6.61711753
C        5.71582750      -5.88402657       5.86481191
N        5.03527736      -5.10437206       4.94460622
H        2.62120210      -0.67604919      -0.38239888
H        4.04730080      -2.09673587       1.03403881
H        0.74305648      -2.68557554       3.75309984
H       -0.67935944      -1.27237322       2.32331338
H        3.26942052      -3.02245480       4.42270647
H        4.43276965      -3.21180699       3.10949184
H        5.36135635      -9.06600326       7.09332795
H        8.24767414      -9.72501324       7.07680682
H        9.62256033     -11.64842273       7.42341463
H       10.44652246     -13.17216474      11.36933038
H        9.11177203     -11.33600351      12.36318195
H        7.56267981      -8.87247705      10.38161974
H        8.27869270      -6.07086966       8.11122430
H        7.24254186      -4.48652474       6.49772793
C       10.88851304     -13.58244272       8.75478942
C       11.53858851     -14.47495997       8.26976281
Br      12.58970557     -15.91808490       7.48551579
