186
Properties=species:S:1:pos:R:3 pbc="F F F"
C        1.79182186       1.79182186      -1.79182186
C        3.09241346       2.08978677      -1.39120905
C        3.89982154       2.89526479      -2.19807464
C        3.41422923       3.40072835      -3.41344686
C        2.09982772       3.09207699      -3.80016282
C        1.29018865       2.29163931      -2.99116382
C        4.29178752       4.26167923      -4.29173022
S        3.79860810       6.00721400      -4.23137630
C        4.89746152       6.68217888      -5.41430152
S        4.67421955       8.25161787      -6.05761141
C        6.07926158       8.04866403      -7.03023531
C        6.65456485       8.93976260      -7.95008565
C        7.81944202       8.55186876      -8.62277465
N        8.40002334       9.39668643      -9.58049349
C        8.99514347      10.45840410      -9.12948063
C        9.61803204      11.43179429     -10.04849485
C       10.30061215      12.51851130      -9.49357729
C       10.90110284      13.45243549     -10.33915341
Br      11.83639585      14.91843668      -9.59614281
C       10.82181350      13.31625902     -11.72558248
C       10.13445979      12.23386935     -12.27657247
C        9.53658062      11.29480118     -11.44016341
O        8.88083267      10.26070481     -12.04935822
C        8.37326191       7.29442253      -8.39151080
C        7.79170066       6.40812723      -7.47440851
C        6.62522761       6.78806703      -6.78108342
N        5.93902610       6.01759115      -5.85735045
H        3.48677526       1.70202816      -0.45576106
H        4.91269955       3.12308694      -1.87200107
H        1.69764296       3.47916571      -4.73463527
H        0.27459111       2.06622755      -3.30522056
H        4.23380199       3.88925896      -5.32123291
H        5.33686145       4.17338752      -3.97353157
H        6.19947468       9.90515639      -8.14576856
H        9.05604191      10.67686090      -8.04630347
H       10.36998165      12.63821319      -8.41591493
H       11.28984557      14.04326080     -12.38462328
H       10.06519476      12.12008063     -13.35539417
H        8.53362746       9.67420486     -11.33865636
H        9.26524588       6.99034900      -8.93490386
H        8.22714290       5.42857341      -7.30079029
C       -1.79182186      -1.79182186      -1.79182186
C       -1.23972582      -2.43805945      -2.89562400
C       -2.04561445      -3.24578361      -3.70176291
C       -3.40585731      -3.41817736      -3.40436976
C       -3.94587956      -2.75706193      -2.28912604
C       -3.14202634      -1.94479367      -1.48617177
C       -4.27438151      -4.30156539      -4.26925008
S       -5.39649987      -3.32849682      -5.31220172
C       -6.31388562      -4.61395929      -6.06609701
S       -7.77365257      -4.30629474      -6.90350151
C       -7.92742968      -5.98593864      -7.24479260
C       -8.94297132      -6.65703484      -7.94440694
C       -8.84365338      -8.04404996      -8.10638209
N       -9.85915532      -8.75601942      -8.76202852
C       -9.93962913      -8.59580448     -10.04759458
C      -10.98649510      -9.27525273     -10.83657334
C      -10.97504465      -9.11249312     -12.22516298
C      -11.95143215      -9.74567092     -12.99558867
Br     -11.93544981      -9.54017295     -14.87535259
C      -12.93740341     -10.53018066     -12.39607092
C      -12.94996250     -10.68568899     -11.00925012
C      -11.97662520     -10.06143037     -10.23348964
O      -12.05034066     -10.25844611      -8.88210894
C       -7.76477967      -8.73533016      -7.55908540
C       -6.75610595      -8.05956530      -6.85856515
C       -6.83589705      -6.66204587      -6.69643514
N       -5.92314498      -5.86632399      -6.02449873
H       -0.18679962      -2.32039317      -3.13737170
H       -1.60266289      -3.74231809      -4.56280658
H       -5.00023776      -2.86852322      -2.04268296
H       -3.57825151      -1.43850641      -0.62928130
H       -4.84977469      -4.97318111      -3.62133807
H       -3.64453933      -4.92976837      -4.90947284
H       -9.79459438      -6.11436702      -8.34143823
H       -9.23428678      -7.94558724     -10.59933226
H      -10.21412270      -8.50398212     -12.70600495
H      -13.69787748     -11.02397881     -12.99587336
H      -13.71512899     -11.29301999     -10.53252058
H      -11.29281763      -9.77959195      -8.47407909
H       -7.70585913      -9.81602630      -7.66861330
H       -5.91924946      -8.60485210      -6.43240504
C       -1.79182186       1.79182186       1.79182186
C       -1.22989449       2.47621103       2.86730376
C       -2.03582039       3.28394006       3.67340052
C       -3.40618000       3.41813590       3.40408854
C       -3.95595342       2.71888521       2.31722890
C       -3.15188247       1.90664252       1.51446678
C       -4.27513584       4.30143058       4.26863055
S       -5.34998014       3.32763155       5.35958671
C       -6.27973179       4.60906624       6.10514389
S       -7.71233796       4.28776929       6.98334156
C       -7.89757079       5.97098752       7.28960261
C       -8.91227478       6.63486696       7.99727136
C       -8.84179744       8.02720613       8.12508186
N       -9.85842582       8.73090773       8.78786971
C       -9.90567434       8.59905500      10.07829886
C      -10.94983584       9.27265859      10.87582675
C      -10.90279143       9.14278049      12.26712883
C      -11.87585295       9.77131715      13.04552164
Br     -11.81203407       9.61033466      14.92860662
C      -12.89339862      10.51878996      12.45146642
C      -12.94134069      10.64143673      11.06212419
C      -11.97165881      10.02161965      10.27826675
O      -12.08088561      10.18518189       8.92482821
C       -7.79222651       8.72999033       7.53697839
C       -6.78429811       8.06126630       6.82867199
C       -6.83501654       6.65887182       6.70048969
N       -5.91949363       5.86872901       6.02574506
H       -0.16924260       2.38837468       3.08694721
H       -1.58502877       3.81052059       4.51223819
H       -5.01799865       2.80037711       2.09306818
H       -3.59562774       1.37056573       0.67984575
H       -4.88078667       4.94433492       3.61917227
H       -3.64569357       4.95871375       4.87937322
H       -9.74163851       6.08229708       8.42646404
H       -9.17284698       7.97825920      10.62810009
H      -10.11701430       8.56327991      12.74381556
H      -13.65130299      11.00896696      13.05745970
H      -13.73123830      11.21975713      10.58967414
H      -11.32189084       9.71436617       8.51023167
H       -7.75614902       9.81402139       7.62032833
H       -5.97042118       8.61543330       6.37065212
C        1.79182186      -1.79182186       1.79182186
C        3.12988977      -1.98687210       1.45664742
C        3.93720885      -2.79232327       2.26362884
C        3.41342910      -3.40072940       3.41424593
C        2.06175221      -3.19497567       3.73533965
C        1.25265214      -2.39454398       2.92579565
C        4.28990366      -4.26178735       4.29350597
S        3.91152655      -6.02614631       4.09952554
C        4.97885200      -6.70795368       5.30713624
S        4.81687661      -8.32505851       5.84151371
C        6.14662689      -8.10096592       6.91056811
C        6.72140630      -9.01248966       7.81051715
C        7.81797805      -8.59950567       8.57660171
N        8.39288178      -9.46698265       9.51733884
C        9.07894126     -10.46139558       9.04269134
C        9.70633692     -11.45204704       9.93993722
C       10.48722633     -12.45969598       9.36577844
C       11.09416416     -13.40774547      10.19078211
Br      12.16169524     -14.76657844       9.42270166
C       10.92487322     -13.36365400      11.57512778
C       10.13973078     -12.36035167      12.14481916
C        9.53453175     -11.40759789      11.32941558
O        8.78047249     -10.45419422      11.95622900
C        8.30456209      -7.29956913       8.45506401
C        7.72368695      -6.39337213       7.55717731
C        6.62624361      -6.79723219       6.77090225
N        5.94876725      -6.01218007       5.85302038
H        3.55364787      -1.51866039       0.57225623
H        4.97983827      -2.93913019       1.98881909
H        1.63021570      -3.66292017       4.61830806
H        0.20817303      -2.24954565       3.18832055
H        4.14807782      -3.95869947       5.33751657
H        5.34433054      -4.09224822       4.04720178
H        6.31697753     -10.01340480       7.92001730
H        9.21718376     -10.60755504       7.95446748
H       10.62739310     -12.50731305       8.28940362
H       11.39787390     -14.10166772      12.21818802
H        9.99997038     -12.31869234      13.22200684
H        8.43970383      -9.84579746      11.26098739
H        9.14213195      -6.97808291       9.07028388
H        8.10635192      -5.38089121       7.46926347
C       -0.00445707       0.01189536      -1.78238275
H       -0.66409135       0.67374010      -2.43557963
H        0.65740317      -0.63156657      -2.45157240
C       -0.90989263      -0.90692880      -0.91072765
C        0.90977584       0.90977584      -0.90977584
C       -0.00465871       1.77757030       0.00794375
H       -0.66225468       2.44313916      -0.64384735
H        0.64322798       2.43503045       0.67728295
C       -1.78241447       0.00034974      -0.00472694
H       -2.45427497      -0.65498947       0.64260836
H       -2.43311707       0.67328779      -0.65473579
C       -0.91132561       0.90220522       0.91563759
C       -0.01476271      -0.02253852       1.78660255
H       -0.67934791      -0.69751639       2.42135241
H        0.63392994       0.61504881       2.47327442
C        0.01484550      -1.77751727      -0.01636693
H        0.67870853      -2.42144646      -0.68295456
H       -0.62264859      -2.45592969       0.64226336
C        1.78714474       0.01002794       0.00389507
H        2.44202412       0.67113390       0.66197326
H        2.45385902      -0.65136977      -0.64189061
C        0.91606151      -0.90478549       0.90901405
