165
Properties=species:S:1:pos:R:3 pbc="F F F"
C        0.00000000       0.00000000       0.00000000
C        0.88191783       0.88191783      -0.88191783
C        2.18250943       1.17988275      -0.48130502
C        2.98991751       1.98536076      -1.28817062
C        2.50432520       2.49082432      -2.50354283
C        1.18992370       2.18217296      -2.89025880
C        0.38028462       1.38173528      -2.08125979
C        3.38188350       3.35177521      -3.38182620
S        2.88870408       5.09730998      -3.32147227
C        3.98755749       5.77227486      -4.50439750
S        3.76431552       7.34171385      -5.14770738
C        5.16935755       7.13876001      -6.12033128
C        5.74466083       8.02985858      -7.04018162
C        6.90953800       7.64196474      -7.71287063
N        7.49011932       8.48678241      -8.67058946
C        8.08523944       9.54850007      -8.21957660
C        8.70812802      10.52189026      -9.13859083
C        9.39070813      11.60860728      -8.58367327
C        9.99119881      12.54253147      -9.42924938
Br      10.92649183      14.00853266      -8.68623879
C        9.91190947      12.40635499     -10.81567846
C        9.22455576      11.32396533     -11.36666845
C        8.62667660      10.38489715     -10.53025939
O        7.97092865       9.35080079     -11.13945420
C        7.46335788       6.38451850      -7.48160677
C        6.88179663       5.49822320      -6.56450448
C        5.71532358       5.87816301      -5.87117939
N        5.02912208       5.10768712      -4.94744643
H        2.57687124       0.79212414       0.45414296
H        4.00279552       2.21318292      -0.96209704
H        0.78773893       2.56926169      -3.82473124
H       -0.63531291       1.15632352      -2.39531654
H        3.32389797       2.97935494      -4.41132889
H        4.42695743       3.26348349      -3.06362755
H        5.28957065       8.99525236      -7.23586454
H        8.14613788       9.76695687      -7.13639944
H        9.46007762      11.72830917      -7.50601090
H       10.37994155      13.13335678     -11.47471925
H        9.15529074      11.21017661     -12.44549015
H        7.62372344       8.76430083     -10.42875234
H        8.35534185       6.08044498      -8.02499983
H        7.31723888       4.51866939      -6.39088626
C       -0.88191783      -0.88191783      -0.88191783
C       -0.73026232      -0.84710353      -2.26633135
C       -1.53572286      -1.65445968      -3.07326636
C       -2.49163696      -2.50673880      -2.50031659
C       -2.63233486      -2.52693782      -1.10308278
C       -1.83137649      -1.71575228      -0.29615093
C       -3.35411121      -3.38882161      -3.37255209
S       -5.05896518      -2.77481719      -3.47370396
C       -5.79316197      -4.04959376      -4.42147412
S       -7.49140565      -4.20891124      -4.55341987
C       -7.27995110      -5.58870553      -5.55979221
C       -8.25329875      -6.40829467      -6.15310760
C       -7.83403602      -7.48000392      -6.95033341
N       -8.77524863      -8.34688534      -7.52535722
C       -9.47580035      -7.86931590      -8.50819987
C      -10.51369781      -8.68379583      -9.17111547
C      -11.18473799      -8.13178500     -10.26646569
C      -12.16866242      -8.88078010     -10.91353714
Br     -13.07227872      -8.14574838     -12.40323617
C      -12.49184861     -10.16583184     -10.47626248
C      -11.82468687     -10.71173579      -9.37876688
C      -10.83825940      -9.97319601      -8.73037772
O      -10.22634193     -10.57135061      -7.66349110
C       -6.47452332      -7.73067885      -7.12428099
C       -5.50790940      -6.91056535      -6.52604957
C       -5.91380564      -5.82118484      -5.72967550
N       -5.07619542      -4.93558939      -5.07247082
H        0.00908549      -0.19721939      -2.72671851
H       -1.40934795      -1.61534622      -4.15338130
H       -3.37257881      -3.17365020      -0.63550285
H       -1.95687515      -1.74238461       0.78293260
H       -3.34379662      -4.40631673      -2.96446844
H       -2.93130390      -3.44035945      -4.38240512
H       -9.30962333      -6.22327568      -5.98778855
H       -9.32685263      -6.83899573      -8.88364584
H      -10.94450047      -7.13210783     -10.61778939
H      -13.25788823     -10.74980916     -10.98032019
H      -12.07071085     -11.71114108      -9.02910556
H       -9.54573089      -9.94462850      -7.32641722
H       -6.15576227      -8.57903979      -7.72598461
H       -4.44994212      -7.11311381      -6.66373860
C       -0.88191783       0.88191783       0.88191783
C       -0.32130418       1.56086859       1.96152444
C       -1.12722467       2.36859704       2.76762719
C       -2.49622941       2.50823867       2.49422428
C       -3.04470068       1.81442386       1.40323093
C       -2.24066115       1.00217692       0.60044163
C       -3.36512308       3.39154782       3.35881400
S       -4.44680803       2.41771797       4.44296033
C       -5.37478231       3.69975902       5.18968852
S       -6.81135627       3.38031813       6.06206236
C       -6.99202860       5.06311889       6.37330135
C       -8.00687429       5.72801940       7.07980734
C       -7.93220978       7.11968554       7.21247804
N       -8.94869872       7.82456285       7.87422962
C       -9.00067291       7.68859346       9.16404975
C      -10.04524225       8.36301822       9.96034864
C      -10.00325330       8.22837583      11.35135954
C      -10.97680915       8.85756122      12.12860929
Br     -10.91978365       8.69012977      14.01134986
C      -11.98989263       9.61037619      11.53367410
C      -12.03280970       9.73778382      10.14459602
C      -11.06258641       9.11734726       9.36189947
O      -11.16677131       9.28575467       8.00865765
C       -6.87836726       7.82092161       6.63019429
C       -5.87031102       7.15120120       5.92301210
C       -5.92524891       5.74941542       5.79000165
N       -5.01011096       4.95847353       5.11567113
H        0.73831495       1.46877994       2.18438741
H       -0.67748176       2.89089429       3.60969943
H       -4.10571912       1.90018772       1.17582502
H       -2.68340328       0.47034611      -0.23742223
H       -3.96647853       4.03860989       2.70949338
H       -2.73554028       4.04470812       3.97382006
H       -8.83948616       5.17679049       7.50441090
H       -8.27173783       7.06354712       9.71420925
H       -9.22098920       7.64469048      11.82871802
H      -12.74817903      10.10105942      12.13877913
H      -12.81921223      10.32028867       9.67145659
H      -10.40796659       8.81379480       7.59501522
H       -6.83897585       8.90454468       6.71726613
H       -5.05308467       7.70417419       5.46953567
C        0.88191783      -0.88191783       0.88191783
C        2.22448164      -1.06246857       0.55674699
C        3.03178737      -1.86791694       1.36374459
C        2.50340732      -2.49083345       2.50445159
C        1.14726392      -2.29957490       2.81551664
C        0.33824326      -1.49913868       2.00589776
C        3.37972342      -3.35191685       3.38384465
S        3.01843100      -5.11772176       3.17133357
C        4.08118360      -5.80078104       4.38226521
S        3.92869878      -7.42382193       4.90121604
C        5.24715709      -7.19757392       5.98371784
C        5.82206189      -8.11190679       6.88073235
C        6.90833083      -7.69615568       7.65988685
N        7.48262351      -8.56679957       8.59806811
C        8.18140132      -9.55107142       8.12084337
C        8.80963152     -10.54404779       9.01492980
C        9.60420743     -11.53986772       8.43891352
C       10.21223427     -12.48979239       9.26095300
Br      11.29816733     -13.83260244       8.49049351
C       10.03060873     -12.45923450      10.64409970
C        9.23185660     -11.46775866      11.21557428
C        8.62544446     -10.51319871      10.40318997
O        7.85771451      -9.57184711      11.03162202
C        7.38459698      -6.39105274       7.55383343
C        6.80362552      -5.48211686       6.65878194
C        5.71658000      -5.88857627       5.85950971
N        5.04024340      -5.10143665       4.94257558
H        2.65176902      -0.58292094      -0.31983756
H        4.07799276      -2.00330726       1.09677546
H        0.71220869      -2.77891014       3.69061303
H       -0.70968976      -1.36546571       2.26055120
H        3.22624429      -3.05917802       4.42915948
H        4.43472147      -3.17113148       3.14821552
H        5.42544228      -9.11719597       6.97804931
H        8.33031151      -9.68653920       7.03264349
H        9.75408036     -11.57688720       7.36343014
H       10.50444992     -13.19871067      11.28485698
H        9.08243491     -11.43670005      12.29182252
H        7.51767617      -8.96038058      10.33871986
H        8.21398484      -6.06771562       8.17908620
H        7.17819561      -4.46563903       6.58295989
