194
Properties=species:S:1:pos:R:3 pbc="F F F"
C        1.79182186       1.79182186      -1.79182186
C        3.09241346       2.08978677      -1.39120905
C        3.89982154       2.89526479      -2.19807464
C        3.41422923       3.40072835      -3.41344686
C        2.09982772       3.09207699      -3.80016282
C        1.29018865       2.29163931      -2.99116382
C        4.29178752       4.26167923      -4.29173022
S        3.79860810       6.00721400      -4.23137630
C        4.89746152       6.68217888      -5.41430152
S        4.67421955       8.25161787      -6.05761141
C        6.07926158       8.04866403      -7.03023531
C        6.65456485       8.93976260      -7.95008565
C        7.81944202       8.55186876      -8.62277465
N        8.40002334       9.39668643      -9.58049349
C        8.99514347      10.45840410      -9.12948063
C        9.61803204      11.43179429     -10.04849485
C       10.30061215      12.51851130      -9.49357729
C       10.90110284      13.45243549     -10.33915341
C       10.82181350      13.31625902     -11.72558248
C       10.13445979      12.23386935     -12.27657247
C        9.53658062      11.29480118     -11.44016341
O        8.88083267      10.26070481     -12.04935822
C        8.37326191       7.29442253      -8.39151080
C        7.79170066       6.40812723      -7.47440851
C        6.62522761       6.78806703      -6.78108342
N        5.93902610       6.01759115      -5.85735045
H        3.48677526       1.70202816      -0.45576106
H        4.91269955       3.12308694      -1.87200107
H        1.69764296       3.47916571      -4.73463527
H        0.27459111       2.06622755      -3.30522056
H        4.23380199       3.88925896      -5.32123291
H        5.33686145       4.17338752      -3.97353157
H        6.19947468       9.90515639      -8.14576856
H        9.05604191      10.67686090      -8.04630347
H       10.36998165      12.63821319      -8.41591493
H       11.28984557      14.04326080     -12.38462328
H       10.06519476      12.12008063     -13.35539417
H        8.53362746       9.67420486     -11.33865636
H        9.26524588       6.99034900      -8.93490386
H        8.22714290       5.42857341      -7.30079029
C       11.61331862      14.56877997      -9.77335866
C       12.20979934      15.50371846      -9.29950556
Br      13.17425821      17.01543494      -8.53332518
C       -1.79182186      -1.79182186      -1.79182186
C       -1.29798712      -2.27310009      -3.00232206
C       -2.10373120      -3.08078348      -3.80864629
C       -3.40456320      -3.41819733      -3.40564390
C       -3.88664873      -2.92200950      -2.18340930
C       -3.08366745      -2.10973845      -1.37958587
C       -4.27133699      -4.30178087      -4.27207912
S       -5.57956890      -3.35610304      -5.10152646
C       -6.44611730      -4.65319719      -5.89462744
S       -8.00606781      -4.42013703      -6.55724399
C       -8.03758344      -6.06779595      -7.05278152
C       -9.05274486      -6.77147306      -7.72019519
C       -8.84237490      -8.12004276      -8.03166778
N       -9.84921198      -8.86827340      -8.65971788
C      -10.07523342      -8.59865825      -9.90913652
C      -11.12978394      -9.30552734     -10.66300990
C      -11.27553236      -9.01444177     -12.02272662
C      -12.26267059      -9.66999559     -12.76002556
C      -13.10517767     -10.60339742     -12.15507990
C      -12.96138030     -10.88725053     -10.79627078
C      -11.97589078     -10.24133695     -10.05431749
O      -11.89244126     -10.56926924      -8.72918521
C       -7.65378120      -8.74510770      -7.66030633
C       -6.64576209      -8.03759293      -6.99088137
C       -6.83774994      -6.67663692      -6.67999119
N       -5.93877673      -5.85747301      -6.01771796
H       -0.29076714      -2.02647527      -3.32732207
H       -1.70704737      -3.44745496      -4.75328523
H       -4.89538199      -3.16307038      -1.85299157
H       -3.47501801      -1.73233469      -0.43868652
H       -4.71271104      -5.08586766      -3.64571516
H       -3.65476445      -4.80021710      -5.02879899
H       -9.98712078      -6.28428720      -7.97899165
H       -9.49333526      -7.83139072     -10.45448030
H      -10.62747059      -8.28936909     -12.50727010
H      -13.87393986     -11.11464101     -12.72914877
H      -13.61417593     -11.61120738     -10.31528626
H      -11.14482808     -10.05535239      -8.34630821
H       -7.50645222      -9.79928282      -7.88476369
H       -5.72278982      -8.53158284      -6.70213395
C      -12.41150436      -9.38108128     -14.16287160
C      -12.53615264      -9.13911555     -15.33775517
Br     -12.73769837      -8.74787743     -17.23744253
C       -1.79182186       1.79182186       1.79182186
C       -1.29940646       2.26979414       3.00420868
C       -2.10514791       3.07747640       3.81053666
C       -3.40453888       3.41819519       3.40567036
C       -3.88521122       2.92531329       2.18154302
C       -3.08224631       2.11304390       1.37770156
C       -4.27127944       4.30177932       4.27213822
S       -5.58294899       3.35703765       5.09721176
C       -6.44852059       4.65427248       5.89114885
S       -8.01020317       4.42295772       6.55028793
C       -8.03948823       6.06971149       7.04896120
C       -9.05457807       6.77406355       7.71577148
C       -8.84220061       8.12161628       8.03026853
N       -9.84880341       8.87058182       8.65781802
C      -10.07777195       8.59898563       9.90627061
C      -11.13241242       9.30643862      10.65947015
C      -11.28136396       9.01300253      12.01833426
C      -12.26865963       9.66904168      12.75499042
C      -13.10818060      10.60524772      12.15022667
C      -12.96119587      10.89145340      10.79225234
C      -11.97552118      10.24506667      10.05095736
O      -11.88886406      10.57540327       8.72662838
C       -7.65167934       8.74509095       7.66242494
C       -6.64373530       8.03691900       6.99358209
C       -6.83775585       6.67694319       6.67967901
N       -5.93908751       5.85732036       6.01755983
H       -0.29329905       2.02058518       3.33068025
H       -1.70958897       3.44154609       4.75665249
H       -4.89283216       3.16897177       1.84964001
H       -3.47250005       1.73822438       0.43531480
H       -4.70991662       5.08793365       3.64644360
H       -3.65521251       4.79755049       5.03101753
H       -9.99039685       6.28819203       7.97181075
H       -9.49842131       7.82953468      10.45125028
H      -10.63565017       8.28573563      12.50272398
H      -13.87706379      11.11686951      12.72379635
H      -13.61165257      11.61760677      10.31141023
H      -11.14150615      10.06077884       8.34420370
H       -7.50274411       9.79854119       7.88921343
H       -5.71924880       8.52967472       6.70758308
C      -12.42077604       9.37769927      14.15698194
C      -12.54817353       9.13370001      15.33114983
Br     -12.75416449       8.73917384      17.22968000
C        1.79182186      -1.79182186       1.79182186
C        3.11035044      -2.04379873       1.41926011
C        3.91772001      -2.84926327       2.22617769
C        3.41387933      -3.40071678       3.41380832
C        2.08162896      -3.13804877       3.77238980
C        1.27222549      -2.33762191       2.96314437
C        4.29096211      -4.26169978       4.29253509
S        3.84770061      -6.01747755       4.17202024
C        4.93266433      -6.69506296       5.36621463
S        4.73549578      -8.28698524       5.96096781
C        6.10793209      -8.07333619       6.97689264
C        6.68269883      -8.97366594       7.88804833
C        7.81808477      -8.57339469       8.60260597
N        8.39584228      -9.42837655       9.55298444
C        9.03174192     -10.46101866       9.09026761
C        9.65634154     -11.44228462       9.99969503
C       10.38310100     -12.49471602       9.43488373
C       10.98619829     -13.43512666      10.27136678
C       10.86616649     -13.33924890      11.65823961
C       10.13486078     -12.29116139      12.21887944
C        9.53398676     -11.34579252      11.39176594
O        8.83403412     -10.34671662      12.01014497
C        8.34314307      -7.29571639       8.42033577
C        7.76218142      -6.40042913       7.51162584
C        6.62553393      -6.79222807       6.77661606
N        5.94336721      -6.01529015       5.85531035
H        3.51877785      -1.62009067       0.50569597
H        4.94482737      -3.04088704       1.92207315
H        1.66539201      -3.56126977       4.68478216
H        0.24278803      -2.14814941       3.25510178
H        4.19527085      -3.91937911       5.32964391
H        5.34134896      -4.13679760       4.00563398
H        6.24922740      -9.95588998       8.04528225
H        9.12755001     -10.64793692       8.00371934
H       10.48451414     -12.58287695       8.35671868
H       11.33620550     -14.07130659      12.31021756
H       10.03368345     -12.20893834      13.29804777
H        8.48997313      -9.75040880      11.30610675
H        9.21159470      -6.98294736       8.99595668
H        8.17504063      -5.40518670       7.37627927
C       11.74367614     -14.51607282       9.69570829
C       12.37806385     -15.42136522       9.21359429
Br      13.40381511     -16.88514648       8.43405674
C       -0.00445707       0.01189536      -1.78238275
H       -0.66409135       0.67374010      -2.43557963
H        0.65740317      -0.63156657      -2.45157240
C       -0.90989263      -0.90692880      -0.91072765
C        0.90977584       0.90977584      -0.90977584
C       -0.00465871       1.77757030       0.00794375
H       -0.66225468       2.44313916      -0.64384735
H        0.64322798       2.43503045       0.67728295
C       -1.78241447       0.00034974      -0.00472694
H       -2.45427497      -0.65498947       0.64260836
H       -2.43311707       0.67328779      -0.65473579
C       -0.91132561       0.90220522       0.91563759
C       -0.01476271      -0.02253852       1.78660255
H       -0.67934791      -0.69751639       2.42135241
H        0.63392994       0.61504881       2.47327442
C        0.01484550      -1.77751727      -0.01636693
H        0.67870853      -2.42144646      -0.68295456
H       -0.62264859      -2.45592969       0.64226336
C        1.78714474       0.01002794       0.00389507
H        2.44202412       0.67113390       0.66197326
H        2.45385902      -0.65136977      -0.64189061
C        0.91606151      -0.90478549       0.90901405
