177
Properties=species:S:1:pos:R:3 pbc="F F F"
C        0.00000000       0.00000000       0.00000000
C        0.88137216       0.88137216      -0.88137216
C        0.51949723       2.20170128      -1.12421593
C        1.33423838       3.00667928      -1.92838265
C        2.52499131       2.51600993      -2.49937479
C        2.85385370       1.17037031      -2.24433296
C        2.04299741       0.35950051      -1.44087973
C        3.37949683       3.39043980      -3.33199167
N        2.73730979       4.37420726      -4.00744833
C        3.42665157       5.20852696      -4.80038874
C        2.71330669       6.18986912      -5.47768290
C        3.33201089       7.09803587      -6.33958906
C        4.69932439       7.01295933      -6.54112669
Br       5.56046806       8.22118388      -7.71022444
C        5.44102097       6.03669400      -5.87982842
C        4.82191400       5.12889297      -4.97778957
C        5.47886957       4.12015006      -4.23184853
C        4.75253945       3.24460803      -3.41890272
C        6.94448664       3.89875989      -4.23728305
O        7.45749477       2.79153497      -4.20692271
O        7.59231313       5.08436195      -4.18134028
C        9.00473479       4.99829628      -3.97581230
C        9.34146461       4.92257193      -2.49107139
O        8.47083502       4.87472733      -1.62186651
C       10.78052240       4.94033603      -2.08792317
C       11.82362935       4.97696686      -3.02261590
C       13.15250594       5.01281603      -2.58977848
C       13.44710827       5.01069608      -1.22735078
C       12.41568693       4.97081560      -0.29195150
C       11.08734072       4.93556500      -0.71970340
H       -0.38831006       2.61848342      -0.69653656
H        1.03502060       4.03913062      -2.10645960
H        3.74484651       0.72390023      -2.68145275
H        2.32856532      -0.67415734      -1.26355510
H        1.63645532       6.24993092      -5.33018924
H        2.73550959       7.85291670      -6.84469617
H        6.50916196       5.98549950      -6.07151822
H        5.27243840       2.48290672      -2.84435791
H        9.43216738       5.91790669      -4.38766356
H        9.43139913       4.14198426      -4.50997270
H       11.63916066       4.97870771      -4.09243388
H       13.96094130       5.04269293      -3.31694020
H       14.48174753       5.03931655      -0.89380667
H       12.64273237       4.96827345       0.77140115
H       10.29100531       4.90752664       0.02249217
C       -0.88137216      -0.88137216      -0.88137216
C       -2.03358576      -1.45563914      -0.35618953
C       -2.84076020      -2.25814956      -1.17039055
C       -2.52077593      -2.49845207      -2.52114802
C       -1.33936396      -1.91282192      -3.01637108
C       -0.52721549      -1.10908585      -2.20707631
C       -3.39823438      -3.33609318      -3.36760074
N       -4.09282678      -4.30416136      -2.72197724
C       -4.90376211      -5.12371773      -3.40808743
C       -5.58071662      -6.10533855      -2.69480355
C       -6.43591198      -7.01901094      -3.31471290
C       -6.60720442      -6.95874807      -4.68745792
Br      -7.74908971      -8.18929816      -5.55348850
C       -5.93834203      -5.98868847      -5.43051290
C       -5.09034829      -5.03654793      -4.80170033
C       -4.38701459      -3.99284924      -5.45100433
C       -3.53208258      -3.15175339      -4.73221423
C       -4.48173809      -3.69820491      -6.90058658
O       -3.52968401      -3.34715286      -7.57911557
O       -5.76860503      -3.78214354      -7.30726678
C       -6.01878344      -3.32220878      -8.63785115
C       -6.27339304      -1.81949234      -8.66222255
O       -6.19418229      -1.12352342      -7.64972315
C       -6.66323103      -1.18667736      -9.95887320
C       -6.75666254      -1.91349289     -11.15305668
C       -7.14582592      -1.27495893     -12.33431559
C       -7.44124876       0.08728917     -12.33119554
C       -7.34727374       0.81748811     -11.14866840
C       -6.95967673       0.18381290      -9.96674529
H       -2.31730652      -1.28877679       0.67937339
H       -3.74037192      -2.69864177      -0.74159712
H       -1.02190557      -2.08542034      -4.04287358
H        0.37656195      -0.67142197      -2.62310306
H       -5.43719258      -6.16214360      -1.61723930
H       -6.94933180      -7.76707189      -2.71671878
H       -6.08092676      -5.97778058      -6.50747234
H       -3.00796497      -2.34868077      -5.24305730
H       -6.92247065      -3.83830879      -8.97695819
H       -5.19242273      -3.58209091      -9.30884245
H       -6.53463094      -2.97508862     -11.20058269
H       -7.21919338      -1.84121952     -13.26016153
H       -7.74432942       0.58096626     -13.25150758
H       -7.57638444       1.88038869     -11.14360892
H       -6.89322440       0.76624226      -9.04905764
C       -0.88137216       0.88137216       0.88137216
C       -0.57480872       1.04268518       2.22792053
C       -1.38309859       1.85636128       3.02984043
C       -2.50526951       2.52844529       2.50666122
C       -2.79473236       2.33147952       1.14234508
C       -1.99030365       1.51855185       0.33452214
C       -3.33522189       3.39725421       3.36945220
N       -3.38266403       3.05617748       4.68012386
C       -4.12144481       3.77624336       5.53787909
C       -4.14188912       3.37191101       6.86705858
C       -4.89085109       4.04181344       7.83697128
C       -5.65188168       5.13702965       7.46449909
Br      -6.68339170       6.05500247       8.75348221
C       -5.65556248       5.56358802       6.13839289
C       -4.87150873       4.90468550       5.15240231
C       -4.77594973       5.26797274       3.78694569
C       -4.01609858       4.50443790       2.89551373
C       -5.44529009       6.44714219       3.18809729
O       -5.93892880       6.44533294       2.07169071
O       -5.33237436       7.51255549       4.01308550
C       -5.75901497       8.76009733       3.45973106
C       -4.63030778       9.43545305       2.68934711
O       -3.53131741       8.90285856       2.53325289
C       -4.86745136      10.80396118       2.13736906
C       -6.09734061      11.46333140       2.26254011
C       -6.25835521      12.75195638       1.74478886
C       -5.19791464      13.38690116       1.10033933
C       -3.97312572      12.73653131       0.96879701
C       -3.80774942      11.45003187       1.48482784
H        0.28600547       0.54573663       2.66697876
H       -1.12643991       1.97170489       4.08246602
H       -3.66510637       2.79899202       0.68610109
H       -2.24233727       1.39065775      -0.71503193
H       -3.55420861       2.50336533       7.15900154
H       -4.87313925       3.69376812       8.86621508
H       -6.27553577       6.41588998       5.87475392
H       -3.94395246       4.80258468       1.85316590
H       -6.03558575       9.39432329       4.30782859
H       -6.63696891       8.62904380       2.81734339
H       -6.94928362      11.00544851       2.75557012
H       -7.21352325      13.26282988       1.84422130
H       -5.32607809      14.38952867       0.69926399
H       -3.14452934      13.22922528       0.46585005
H       -2.84400014      10.95460919       1.37743045
C        0.88137216      -0.88137216       0.88137216
C        2.24872926      -0.64063671       0.95604846
C        3.05096027      -1.44830189       1.77003815
C        2.50791871      -2.50414913       2.52830818
C        1.12178596      -2.72870518       2.41806583
C        0.31351000      -1.92453036       1.60533728
C        3.37273207      -3.33388343       3.39531280
N        4.65869889      -3.47013245       2.99013404
C        5.51510035      -4.21635466       3.70411225
C        6.81747337      -4.32995393       3.23343141
C        7.78246060      -5.09502215       3.89215307
C        7.43137055      -5.77711081       5.04492905
Br       8.71344877      -6.82849434       5.94993327
C        6.13202677      -5.68658886       5.53892777
C        5.15341678      -4.88508492       4.89009485
C        3.81651155      -4.69672645       5.31763016
C        2.92524976      -3.92990373       4.56089671
C        3.24898464      -5.27072907       6.56081587
O        2.11014734      -5.70230680       6.64349831
O        4.13546483      -5.14804686       7.57450366
C        3.62955106      -5.47898080       8.87031151
C        2.95634922      -4.27666698       9.52209174
O        2.82842663      -3.19976431       8.93923792
C        2.46817203      -4.41246944      10.92814013
C        2.56540289      -5.61167613      11.64613309
C        2.11093730      -5.67754981      12.96661334
C        1.55759233      -4.55225031      13.57531249
C        1.45423479      -3.35731828      12.86690097
C        1.90732560      -3.28689185      11.54839167
H        2.70393020       0.16820749       0.39098721
H        4.12014492      -1.24370552       1.81676038
H        0.64735214      -3.54766611       2.95518123
H       -0.75305617      -2.12532962       1.54568964
H        7.09165149      -3.80464528       2.32027871
H        8.79077572      -5.15134283       3.49100391
H        5.88352213      -6.24647821       6.43617934
H        1.90578930      -3.78584031       4.90807342
H        4.49550504      -5.76819969       9.47403289
H        2.93652796      -6.32626146       8.82056667
H        2.98815278      -6.51168562      11.21046385
H        2.18859830      -6.60907236      13.52290377
H        1.20560319      -4.60647642      14.60279114
H        1.02228564      -2.47825326      13.33906576
H        1.82300593      -2.34558129      11.00745256
