185
Properties=species:S:1:pos:R:3 pbc="F F F"
C        0.00000000       0.00000000       0.00000000
C        0.88137216       0.88137216      -0.88137216
C        0.51949723       2.20170128      -1.12421593
C        1.33423838       3.00667928      -1.92838265
C        2.52499131       2.51600993      -2.49937479
C        2.85385370       1.17037031      -2.24433296
C        2.04299741       0.35950051      -1.44087973
C        3.37949683       3.39043980      -3.33199167
N        2.73730979       4.37420726      -4.00744833
C        3.42665157       5.20852696      -4.80038874
C        2.71330669       6.18986912      -5.47768290
C        3.33201089       7.09803587      -6.33958906
C        4.69932439       7.01295933      -6.54112669
C        5.44102097       6.03669400      -5.87982842
C        4.82191400       5.12889297      -4.97778957
C        5.47886957       4.12015006      -4.23184853
C        4.75253945       3.24460803      -3.41890272
C        6.94448664       3.89875989      -4.23728305
O        7.45749477       2.79153497      -4.20692271
O        7.59231313       5.08436195      -4.18134028
C        9.00473479       4.99829628      -3.97581230
C        9.34146461       4.92257193      -2.49107139
O        8.47083502       4.87472733      -1.62186651
C       10.78052240       4.94033603      -2.08792317
C       11.82362935       4.97696686      -3.02261590
C       13.15250594       5.01281603      -2.58977848
C       13.44710827       5.01069608      -1.22735078
C       12.41568693       4.97081560      -0.29195150
C       11.08734072       4.93556500      -0.71970340
H       -0.38831006       2.61848342      -0.69653656
H        1.03502060       4.03913062      -2.10645960
H        3.74484651       0.72390023      -2.68145275
H        2.32856532      -0.67415734      -1.26355510
H        1.63645532       6.24993092      -5.33018924
H        2.73550959       7.85291670      -6.84469617
H        6.50916196       5.98549950      -6.07151822
H        5.27243840       2.48290672      -2.84435791
H        9.43216738       5.91790669      -4.38766356
H        9.43139913       4.14198426      -4.50997270
H       11.63916066       4.97870771      -4.09243388
H       13.96094130       5.04269293      -3.31694020
H       14.48174753       5.03931655      -0.89380667
H       12.64273237       4.96827345       0.77140115
H       10.29100531       4.90752664       0.02249217
C        5.35579558       7.93401889      -7.43235892
C        5.90559020       8.70540626      -8.17876590
Br       6.79456161       9.95267440      -9.38564287
C       -0.88137216      -0.88137216      -0.88137216
C       -2.04393431      -1.43967167      -0.36180845
C       -2.85099773      -2.24224962      -1.17605295
C       -2.52055921      -2.49845764      -2.52135917
C       -1.32897623      -1.92878608      -3.01079466
C       -0.51688110      -1.12507650      -2.20142004
C       -3.39793070      -3.33580624      -3.36819136
N       -4.10781330      -4.29105020      -2.72010189
C       -4.92001181      -5.10941367      -3.40614179
C       -5.61302761      -6.07772972      -2.69010139
C       -6.47100725      -6.98914977      -3.30947881
C       -6.62872254      -6.94038208      -4.68430579
C       -5.94362691      -5.98383398      -5.43008251
C       -5.09256508      -5.03379611      -4.80223536
C       -4.37318486      -4.00304631      -5.45463699
C       -3.51709709      -3.16324942      -4.73570370
C       -4.45137283      -3.72137651      -6.90778023
O       -3.48963324      -3.38584277      -7.58047643
O       -5.73507796      -3.79701776      -7.32591963
C       -5.96825393      -3.34746539      -8.66312404
C       -6.20825853      -1.84270889      -8.70414052
O       -6.13198643      -1.13788247      -7.69755996
C       -6.57975142      -1.21864667     -10.01038351
C       -6.66881886      -1.95591752     -11.19847573
C       -7.04067418      -1.32504119     -12.38938507
C       -7.32308992       0.03990831     -12.40197352
C       -7.23333644       0.78044580     -11.22556340
C       -6.86300722       0.15444895     -10.03405085
H       -2.33583224      -1.26025043       0.66937276
H       -3.75879140      -2.67009660      -0.75172282
H       -1.00348419      -2.11417550      -4.03253979
H        0.39493012      -0.69997508      -2.61291813
H       -5.48025278      -6.12559628      -1.61072643
H       -6.99718192      -7.72657514      -2.70936541
H       -6.07590657      -5.98186355      -6.50840956
H       -2.98052466      -2.37008622      -5.24909216
H       -6.87358047      -3.85820850      -9.00594866
H       -5.13810228      -3.62154959      -9.32370422
H       -6.45649632      -3.01997163     -11.23383430
H       -7.11068451      -1.89939869     -13.31049123
H       -7.61272229       0.52761865     -13.32976711
H       -7.45232324       1.84546605     -11.23274748
H       -6.79967981       0.74496127      -9.12132124
C       -7.50184490      -7.87644650      -5.34388197
C       -8.23308488      -8.66040045      -5.89627703
Br      -9.41543808      -9.92798768      -6.78945312
C       -0.88137216       0.88137216       0.88137216
C       -0.56677476       1.05397607       2.22466361
C       -1.37514478       1.86760832       3.02654720
C       -2.50541865       2.52845374       2.50650364
C       -2.80279304       2.32019338       1.14557054
C       -1.99832924       1.50724288       0.33780552
C       -3.33541374       3.39748557       3.36902899
N       -3.37161133       3.06507150       4.68228255
C       -4.10945540       3.78595242       5.54015945
C       -4.11809774       3.39059582       6.87216515
C       -4.86501695       4.06201395       7.84260492
C       -5.63603855       5.14945778       7.46791408
C       -5.65165141       5.56689643       6.13899556
C       -4.86982661       4.90660618       5.15216375
C       -4.78603875       5.26118186       3.78364754
C       -4.02705671       4.49674675       2.89224674
C       -5.46748753       6.43164908       3.18139297
O       -5.96867881       6.41884494       2.06842870
O       -5.35626071       7.50342587       3.99832877
C       -5.79517971       8.74422318       3.43944047
C       -4.67638273       9.42194708       2.65677813
O       -3.57485974       8.89577872       2.49679041
C       -4.92663196      10.78500244       2.09714720
C       -6.16012547      11.43683934       2.22624730
C       -6.33346997      12.72076691       1.70086356
C       -5.28180396      13.35847956       1.04487161
C       -4.05351542      12.71556434       0.90937427
C       -3.87583566      11.43378008       1.43299337
H        0.30038429       0.56590592       2.66118828
H       -1.11213296       1.99189437       4.07658349
H       -3.67942683       2.77864625       0.69212640
H       -2.25660945       1.37045937      -0.70910574
H       -3.52251664       2.52808268       7.16597616
H       -4.83792868       3.72114856       8.87404521
H       -6.27922026       6.41314080       5.87381862
H       -3.96403879       4.78823698       1.84742726
H       -6.07031349       9.38234360       4.28508053
H       -6.67656212       8.60281252       2.80398146
H       -7.00554446      10.97656125       2.72819654
H       -7.29141380      13.22580507       1.80335556
H       -5.41954866      14.35744469       0.63787740
H       -3.23174760      13.21042536       0.39743171
H       -2.90947087      10.94419585       1.32237306
C       -6.42045789       5.85059844       8.45111705
C       -7.07740909       6.43780375       9.27454953
Br      -8.13964361       7.38726506      10.60597022
C        0.88137216      -0.88137216       0.88137216
C        2.24688667      -0.63330886       0.96521891
C        3.04908195      -1.44104099       1.77917736
C        2.50778145      -2.50426566       2.52832892
C        1.12360143      -2.73605361       2.40890192
C        0.31537416      -1.93185325       1.59615024
C        3.37238210      -3.33401361       3.39553260
N        4.66138515      -3.46064506       2.99693517
C        5.51796607      -4.20605775       3.71154345
C        6.82361731      -4.30957310       3.24766830
C        7.78920175      -5.07289931       3.90753476
C        7.43547327      -5.76354013       5.05439702
C        6.13285055      -5.68321727       5.54147558
C        5.15337964      -4.88359030       4.89162660
C        3.81301544      -4.70526787       5.31258485
C        2.92170040      -3.93920915       4.55514065
C        3.24172681      -5.28957093       6.54923184
O        2.10492096      -5.72807147       6.62296001
O        4.12172355      -5.16764766       7.56864415
C        3.61035966      -5.50884058       8.85964312
C        2.92661566      -4.31410829       9.51438399
O        2.79585778      -3.23463915       8.93693193
C        2.43124797      -4.46070474      10.91682889
C        2.53124622      -5.66341968      11.62854622
C        2.06967555      -5.73940973      12.94601516
C        1.50646877      -4.62076293      13.55792343
C        1.40031405      -3.42241199      12.85572798
C        1.86047281      -3.34188839      11.54024792
H        2.70066278       0.18131910       0.40736624
H        4.11679867      -1.23064862       1.83316352
H        0.65080946      -3.56074761       2.93864242
H       -0.74967249      -2.13835997       1.52927560
H        7.09997117      -3.77751184       2.33909248
H        8.80008291      -5.12120416       3.51183540
H        5.88245703      -6.24962159       6.43410106
H        1.89947973      -3.80291955       4.89730376
H        4.47450963      -5.79658107       9.46664692
H        2.92247857      -6.35974383       8.80113370
H        2.96159373      -6.55851295      11.19019557
H        2.14949428      -6.67363713      13.49744302
H        1.14896800      -4.68285131      14.58305144
H        0.96067999      -2.54852309      13.33040159
H        1.77385261      -2.39799875      11.00418843
C        8.41346105      -6.56340050       5.74531183
C        9.23252583      -7.23328356       6.32395298
Br      10.55688429      -8.31642782       7.25956677
