165
Properties=species:S:1:pos:R:3 pbc="F F F"
C        0.00000000       0.00000000       0.00000000
C        0.88145442       0.88145442      -0.88145442
C        1.02648013       2.23384388      -0.58572942
C        1.82504570       3.04076351      -1.40348592
C        2.50278222       2.49665957      -2.50333575
C        2.35042195       1.13628234      -2.78314042
C        1.53480160       0.33076229      -1.97975799
N        3.30085289       3.37196370      -3.27259084
C        4.26815261       3.01733557      -4.18847806
O        4.56217376       1.87332062      -4.52296125
C        4.98415387       4.16318230      -4.84071760
C        5.42097375       5.27732629      -4.21607574
C        5.29491474       5.61510303      -2.75630848
N        6.12041974       6.20869339      -4.95275624
C        6.56931960       6.03614314      -6.22643064
O        7.24032789       6.88865326      -6.79590448
N        6.26497267       4.85620713      -6.81232560
C        5.29221041       3.90924272      -6.29994690
H        5.80237891       2.94228349      -6.39743550
C        4.06592285       3.91190542      -7.20251900
C        3.63291709       2.71497912      -7.79777185
C        2.54820122       2.70600669      -8.67736851
C        1.87519125       3.89115290      -8.96903313
C        2.28467260       5.08022569      -8.37083203
C        3.36755600       5.09743585      -7.49114385
H        0.52774416       2.66784520       0.27699462
H        1.93096979       4.09157321      -1.14674822
H        2.83192336       0.67334184      -3.63920850
H        1.41848476      -0.72165952      -2.22610627
H        3.17156015       4.35576576      -3.08442130
H        5.22627386       4.72467146      -2.12549626
H        4.41590517       6.24589447      -2.58632783
H        6.17499423       6.16682818      -2.40603889
H        6.44100314       7.06796983      -4.52099270
H        6.58386818       4.75482929      -7.76562028
H        4.14607468       1.77758172      -7.58488208
H        2.23255697       1.77377190      -9.13989237
H        1.03846883       3.87697899      -9.66232591
H        3.68459101       6.03841823      -7.04703874
C        1.59136354       6.30603477      -8.67135600
C        1.01071721       7.33264987      -8.92304483
Br       0.07186119       8.99259966      -9.33000438
C       -0.88145442      -0.88145442      -0.88145442
C       -1.24209325      -2.15453477      -0.44942542
C       -2.03950725      -2.96391240      -1.26587549
C       -2.50188869      -2.49683442      -2.50405443
C       -2.13484747      -1.21461625      -2.92038099
C       -1.31913804      -0.41058568      -2.11559816
N       -3.31382570      -3.36698125      -3.26460048
C       -4.10852121      -3.02699684      -4.33844819
O       -4.20332122      -1.91194305      -4.84319136
C       -4.89021297      -4.15720172      -4.94063908
C       -5.54476447      -5.11677947      -4.25283185
C       -5.63993347      -5.26667165      -2.75972112
N       -6.27113890      -6.04939186      -4.96133861
C       -6.53799287      -5.99849675      -6.29540375
O       -7.24560698      -6.83431525      -6.84496340
N       -6.00946106      -4.95321808      -6.97082626
C       -4.98546658      -4.06807273      -6.44786072
H       -5.34498822      -3.06945178      -6.72765790
C       -3.67229379      -4.33846617      -7.16958731
C       -3.01379564      -3.29303190      -7.83884053
C       -1.84103971      -3.53204734      -8.55848937
C       -1.30458031      -4.81725663      -8.61354034
C       -1.93922702      -5.85736315      -7.93914015
C       -3.11130497      -5.62665630      -7.21817444
H       -0.91271912      -2.52409086       0.51821525
H       -2.31627791      -3.95025774      -0.90275558
H       -2.44414732      -0.81774231      -3.88258407
H       -1.03316131       0.57751475      -2.46728494
H       -3.34201314      -4.32464067      -2.94509339
H       -5.52701063      -4.31366297      -2.23576798
H       -4.88076474      -5.96865530      -2.39870744
H       -6.62185771      -5.65742645      -2.46857714
H       -6.75397150      -6.79815670      -4.47783747
H       -6.19613579      -4.94447172      -7.96371024
H       -3.41714478      -2.28117371      -7.81021998
H       -1.34954606      -2.71508747      -9.08158771
H       -0.39720710      -4.99649284      -9.18407379
H       -3.60316008      -6.45454563      -6.71234227
C       -1.38724446      -7.18618147      -7.99532839
C       -0.92495906      -8.29906681      -8.04238604
Br      -0.17748266     -10.09850829      -8.11847428
C       -0.88145442       0.88145442       0.88145442
C       -1.33085613       0.40539207       2.10980524
C       -2.14889919       1.21160850       2.90878744
C       -2.49992529       2.50502843       2.49782382
C       -2.03613203       2.96935159       1.26436109
C       -1.23549653       2.15709091       0.45273444
N       -3.31698118       3.26303512       3.36539113
C       -3.53394416       4.62348349       3.31653860
O       -3.08701203       5.39696829       2.47447531
C       -4.43106923       5.16841039       4.38857415
C       -4.40269349       4.81938864       5.69229365
C       -3.48410309       3.82918211       6.35304105
N       -5.25581731       5.46501777       6.56103429
C       -6.01506099       6.55481899       6.26201340
O       -6.70427220       7.11350792       7.10710551
N       -5.93566117       7.00743680       4.99040744
C       -5.33634963       6.27379520       3.89125521
H       -4.73062851       7.03242851       3.37904088
C       -6.43307792       5.80002181       2.94724754
C       -6.39281161       6.16258353       1.59027292
C       -7.42028155       5.79074774       0.72054712
C       -8.49900725       5.04454020       1.19182983
C       -8.54023944       4.66452016       2.53097072
C       -7.51770685       5.03225344       3.40617541
H       -1.04891533      -0.58577925       2.45545866
H       -2.47918082       0.82194295       3.86816745
H       -2.30281279       3.95269708       0.88896383
H       -0.89954197       2.53357062      -0.51018108
H       -3.73969013       2.74781441       4.12424267
H       -2.53487654       3.72010121       5.82146383
H       -3.97000524       2.85051560       6.42760664
H       -3.22679309       4.15279552       7.36827269
H       -5.27816821       5.20995167       7.54184579
H       -6.52428251       7.80092373       4.77911151
H       -5.55959367       6.74739726       1.20154754
H       -7.38118900       6.08941965      -0.32438741
H       -9.29923042       4.76797189       0.51057141
H       -7.57544251       4.74177858       4.45282690
C       -9.65419142       3.89427418       3.02028871
C      -10.58712621       3.24919317       3.43009253
Br     -12.09560286       2.20615173       4.09271065
C        0.88145442      -0.88145442       0.88145442
C        1.19620841      -0.47490927       2.17493575
C        2.01472486      -1.27963931       2.97493097
C        2.50050187      -2.50482465       2.49745102
C        2.17087170      -2.90037359       1.19859941
C        1.37011585      -2.08728573       0.38792029
N        3.30890527      -3.26733323       3.36916893
C        3.63955799      -4.59890437       3.23550389
O        3.32239068      -5.33244891       2.30361604
C        4.49463080      -5.16034035       4.33308262
C        4.33928134      -4.92234175       5.65275269
C        3.29540328      -4.06184319       6.30907978
N        5.17424171      -5.57054127       6.53708639
C        6.04056382      -6.57166948       6.21966007
O        6.70730496      -7.14392945       7.07365121
N        6.09485946      -6.92339708       4.91524886
C        5.52235048      -6.14968227       3.82936728
H        5.02122508      -6.90747180       3.21340102
C        6.64485616      -5.51866422       3.01682690
C        6.73712628      -5.77095034       1.63759144
C        7.79353104      -5.25255186       0.88549352
C        8.76882741      -4.46799303       1.49855684
C        8.67743681      -4.19682467       2.86146885
C        7.62518857      -4.71122125       3.61972588
H        0.80876282       0.46047925       2.57031117
H        2.23851084      -0.94594641       3.98483397
H        2.54476095      -3.82670454       0.77300820
H        1.13988043      -2.40801452      -0.62496343
H        3.62943035      -2.78546556       4.19685131
H        2.38335726      -3.98171283       5.71137149
H        3.69254123      -3.05863157       6.49695468
H        2.98941244      -4.48599075       7.27245811
H        5.10141047      -5.39564872       7.53290649
H        6.76073622      -7.65013839       4.69344314
H        5.98635650      -6.38331267       1.13886930
H        7.85814269      -5.46679644      -0.17871789
H        9.59294637      -4.07687789       0.90794947
H        7.57964498      -4.50385345       4.68654955
C        9.68440885      -3.38718947       3.49715600
C       10.52774793      -2.70911999       4.02954398
Br      11.89135591      -1.61273899       4.89037033
