178
Properties=species:S:1:pos:R:3 pbc="F F F"
C        1.79135845       1.79135845      -1.79135845
C        1.93638415       3.14374791      -1.49563345
C        2.73494972       3.95066754      -2.31338995
C        3.41268624       3.40656360      -3.41323978
C        3.26032597       2.04618637      -3.69304444
C        2.44470562       1.24066631      -2.88966201
N        4.21075691       4.28186772      -4.18249487
C        5.17805664       3.92723960      -5.09838209
O        5.47207779       2.78322464      -5.43286528
C        5.89405790       5.07308632      -5.75062162
C        6.33087778       6.18723032      -5.12597976
C        6.20481876       6.52500705      -3.66621251
N        7.03032376       7.11859742      -5.86266026
C        7.47922362       6.94604716      -7.13633467
O        8.15023191       7.79855729      -7.70580850
N        7.17487670       5.76611116      -7.72222963
C        6.20211443       4.81914675      -7.20985093
H        6.71228293       3.85218752      -7.30733952
C        4.97582687       4.82180944      -8.11242303
C        4.54282111       3.62488315      -8.70767587
C        3.45810524       3.61591071      -9.58727253
C        2.78509527       4.80105692      -9.87893716
C        3.19457663       5.99012972      -9.28073605
Br       2.28424508       7.59964665      -9.67533129
C        4.27746002       6.00733988      -8.40104788
H        1.43764818       3.57774923      -0.63290941
H        2.84087381       5.00147724      -2.05665225
H        3.74182739       1.58324586      -4.54911252
H        2.32838878       0.18824451      -3.13601029
H        4.08146417       5.26566979      -3.99432532
H        6.13617789       5.63457548      -3.03540029
H        5.32580919       7.15579849      -3.49623186
H        7.08489825       7.07673221      -3.31594291
H        7.35090717       7.97787386      -5.43089672
H        7.49377220       5.66473331      -8.67552431
H        5.05597870       2.68748574      -8.49478610
H        3.14246099       2.68367593     -10.04979640
H        1.94837286       4.78688301     -10.57222993
H        4.59449504       6.94832225      -7.95694277
C       -1.79135845      -1.79135845      -1.79135845
C       -2.78092868      -1.21342415      -2.58141267
C       -3.59489643      -2.02603393      -3.37807685
C       -3.40768079      -3.41491238      -3.40989645
C       -2.40652660      -3.97834630      -2.61468388
C       -1.60481562      -3.17031597      -1.79990235
N       -4.25950881      -4.16620415      -4.24940655
C       -4.07263107      -5.46776625      -4.66328101
O       -3.15252700      -6.20795620      -4.32768451
C       -5.12934276      -6.00615548      -5.58226760
C       -5.69001926      -5.34012623      -6.61394236
C       -5.38798224      -3.93916302      -7.06889307
N       -6.60408204      -6.00509132      -7.40240807
C       -6.87525167      -7.33815528      -7.34819849
O       -7.65805827      -7.87027109      -8.12626834
N       -6.20366983      -8.04676385      -6.41278379
C       -5.45086404      -7.46088547      -5.31936261
H       -4.51867855      -8.04034474      -5.31278668
C       -6.19197385      -7.70604068      -4.01204481
C       -5.54668142      -8.37223032      -2.95646840
C       -6.22743962      -8.66188390      -1.77196497
C       -7.56032746      -8.28326651      -1.62149539
C       -8.20435905      -7.60668912      -2.65439422
Br     -10.01282328      -7.09278348      -2.45361626
C       -7.53114059      -7.31381225      -3.84089494
H       -2.92454181      -0.13605555      -2.58770945
H       -4.35414329      -1.55098475      -3.99387525
H       -2.24020169      -5.05088918      -2.58309490
H       -0.84269707      -3.63246252      -1.17748399
H       -5.05815159      -3.66795974      -4.61534796
H       -4.37396090      -3.62425499      -6.80793777
H       -6.10667241      -3.23530203      -6.63586510
H       -5.45808434      -3.85955192      -8.15993711
H       -7.06265152      -5.52721897      -8.16980726
H       -6.43530075      -9.02921849      -6.36951059
H       -4.50556258      -8.67871074      -3.05397723
H       -5.71819633      -9.18909997      -0.96863702
H       -8.08559415      -8.52144298      -0.70044867
H       -8.05539322      -6.80046421      -4.64390263
C       -1.79135845       1.79135845       1.79135845
C       -1.95362945       3.13899164       1.48314442
C       -2.75208341       3.94611172       2.30081208
C       -3.41261625       3.40657007       3.41330329
C       -3.24309298       2.05085910       3.70560471
C       -2.42745153       1.24546635       2.90211607
N       -4.21179653       4.28156343       4.18175954
C       -5.16575940       3.92653988       5.11137904
O       -5.44427137       2.78310619       5.46079014
C       -5.88693303       5.07167073       5.75916208
C       -6.34188197       6.17460322       5.12760267
C       -6.23453889       6.49833509       3.66316435
N       -7.04337482       7.10633574       5.86187088
C       -7.47718961       6.94250740       7.14190844
O       -8.15115668       7.79393236       7.70950866
N       -7.15441119       5.77200793       7.73679836
C       -6.17713907       4.82987142       7.22410162
H       -6.67609357       3.85874298       7.33697342
C       -4.94164092       4.85473789       8.11368053
C       -4.48994224       3.66868415       8.71675375
C       -3.39611684       3.68020562       9.58496603
C       -2.73258711       4.87527149       9.85723076
C       -3.16071215       6.05368593       9.25104431
Br      -2.26327073       7.67662061       9.61933168
C       -4.25279266       6.05041934       8.38263576
H       -1.46846010       3.56907206       0.61077465
H       -2.87168781       4.99301313       2.03430236
H       -3.71079512       1.59195176       4.57143890
H       -2.29754648       0.19695192       3.15814518
H       -4.09479464       5.26462642       3.98203823
H       -6.16311262       5.60209431       3.04094673
H       -5.36400892       7.13640170       3.47742892
H       -7.12394876       7.03718621       3.31643840
H       -7.37742286       7.95765926       5.42459563
H       -7.46230936       5.67733250       8.69438796
H       -4.99541860       2.72382654       8.51900541
H       -3.06592246       2.75620319      10.05380767
H       -1.88860811       4.87706208      10.54181561
H       -4.58427819       6.98334724       7.93213463
C        1.79135845      -1.79135845       1.79135845
C        2.66325714      -1.20696971       2.70553866
C        3.47846485      -2.01811710       3.50242525
C        3.40812220      -3.41505230       3.40931512
C        2.52388820      -3.98550665       2.49016193
C        1.72266369      -3.17640719       1.67596307
N        4.25236554      -4.16597079       4.25678317
C        4.14500550      -5.50863864       4.55003418
O        3.32030609      -6.28740035       4.08046127
C        5.16842762      -6.03879184       5.51054638
C        5.58789039      -5.42104302       6.63515444
C        5.13310347      -4.09182379       7.17111107
N        6.49060839      -6.07699792       7.44397512
C        6.87756939      -7.37527016       7.30876589
O        7.63942833      -7.90866440       8.10650497
N        6.34402562      -8.05218628       6.26700558
C        5.63209685      -7.43622253       5.16279272
H        4.75595524      -8.08425774       5.03159700
C        6.49149105      -7.51050592       3.90806237
C        5.98986576      -8.13300971       2.75250467
C        6.78347676      -8.26666469       1.61114704
C        8.08701491      -7.77338094       1.60469350
C        8.58828085      -7.13872934       2.73843220
Br      10.35664192      -6.46953292       2.73304819
C        7.80172847      -7.00145191       3.88266739
H        2.71379466      -0.12611218       2.80839997
H        4.14398420      -1.53914682       4.21587227
H        2.45236207      -5.06119907       2.36062464
H        1.05371323      -3.64222337       0.95670699
H        4.97461623      -3.63962703       4.72721603
H        4.11954439      -3.83626780       6.85034147
H        5.82103813      -3.29956113       6.85724028
H        5.11050015      -4.10003745       8.26703578
H        6.84535135      -5.63166857       8.28265783
H        6.66104062      -9.00622777       6.16676144
H        4.97415396      -8.52728123       2.73681535
H        6.38541043      -8.76192091       0.72860198
H        8.70116213      -7.89048853       0.71583515
H        8.21590789      -6.51876775       4.76508441
C       -0.00445707       0.01189536      -1.78238275
H       -0.66409135       0.67374010      -2.43557963
H        0.65740317      -0.63156657      -2.45157240
C       -0.90989263      -0.90692880      -0.91072765
C        0.90977584       0.90977584      -0.90977584
C       -0.00465871       1.77757030       0.00794375
H       -0.66225468       2.44313916      -0.64384735
H        0.64322798       2.43503045       0.67728295
C       -1.78241447       0.00034974      -0.00472694
H       -2.45427497      -0.65498947       0.64260836
H       -2.43311707       0.67328779      -0.65473579
C       -0.91132561       0.90220522       0.91563759
C       -0.01476271      -0.02253852       1.78660255
H       -0.67934791      -0.69751639       2.42135241
H        0.63392994       0.61504881       2.47327442
C        0.01484550      -1.77751727      -0.01636693
H        0.67870853      -2.42144646      -0.68295456
H       -0.62264859      -2.45592969       0.64226336
C        1.78714474       0.01002794       0.00389507
H        2.44202412       0.67113390       0.66197326
H        2.45385902      -0.65136977      -0.64189061
C        0.91606151      -0.90478549       0.90901405
