157
Properties=species:S:1:pos:R:3 pbc="F F F"
C        0.00000000       0.00000000       0.00000000
C        0.88145442       0.88145442      -0.88145442
C        1.02648013       2.23384388      -0.58572942
C        1.82504570       3.04076351      -1.40348592
C        2.50278222       2.49665957      -2.50333575
C        2.35042195       1.13628234      -2.78314042
C        1.53480160       0.33076229      -1.97975799
N        3.30085289       3.37196370      -3.27259084
C        4.26815261       3.01733557      -4.18847806
O        4.56217376       1.87332062      -4.52296125
C        4.98415387       4.16318230      -4.84071760
C        5.42097375       5.27732629      -4.21607574
C        5.29491474       5.61510303      -2.75630848
N        6.12041974       6.20869339      -4.95275624
C        6.56931960       6.03614314      -6.22643064
O        7.24032789       6.88865326      -6.79590448
N        6.26497267       4.85620713      -6.81232560
C        5.29221041       3.90924272      -6.29994690
H        5.80237891       2.94228349      -6.39743550
C        4.06592285       3.91190542      -7.20251900
C        3.63291709       2.71497912      -7.79777185
C        2.54820122       2.70600669      -8.67736851
C        1.87519125       3.89115290      -8.96903313
C        2.28467260       5.08022569      -8.37083203
Br       1.37434106       6.68974263      -8.76542727
C        3.36755600       5.09743585      -7.49114385
H        0.52774416       2.66784520       0.27699462
H        1.93096979       4.09157321      -1.14674822
H        2.83192336       0.67334184      -3.63920850
H        1.41848476      -0.72165952      -2.22610627
H        3.17156015       4.35576576      -3.08442130
H        5.22627386       4.72467146      -2.12549626
H        4.41590517       6.24589447      -2.58632783
H        6.17499423       6.16682818      -2.40603889
H        6.44100314       7.06796983      -4.52099270
H        6.58386818       4.75482929      -7.76562028
H        4.14607468       1.77758172      -7.58488208
H        2.23255697       1.77377190      -9.13989237
H        1.03846883       3.87697899      -9.66232591
H        3.68459101       6.03841823      -7.04703874
C       -0.88145442      -0.88145442      -0.88145442
C       -1.63481955      -1.90229326      -0.30894063
C       -2.43146117      -2.71588595      -1.12194801
C       -2.50016099      -2.49766291      -2.50495364
C       -1.74156560      -1.46545786      -3.06282125
C       -0.92664277      -0.66358499      -2.25509412
N       -3.33731767      -3.35150767      -3.25658209
C       -3.78580907      -3.14459362      -4.54356356
O       -3.48887247      -2.20013027      -5.26945289
C       -4.69270243      -4.20996047      -5.08539086
C       -5.69532701      -4.80982910      -4.40921967
C       -6.12407305      -4.55076697      -2.99148624
N       -6.47801291      -5.72665682      -5.07719964
C       -6.44890618      -5.96583278      -6.41715442
O       -7.22109371      -6.75427801      -6.94951391
N       -5.54603305      -5.25640162      -7.13107073
C       -4.45671392      -4.49177137      -6.55291475
H       -4.48512465      -3.54664326      -7.11032999
C       -3.13885727      -5.19617030      -6.84531971
C       -2.11428842      -4.51116655      -7.52021308
C       -0.92160878      -5.15710879      -7.85285885
C       -0.73176135      -6.49443031      -7.50918562
C       -1.73344990      -7.17787980      -6.82440062
Br      -1.47923756      -8.99244352      -6.35782987
C       -2.92787716      -6.53959406      -6.48866448
H       -1.61252821      -2.07068728       0.76462075
H       -3.01836222      -3.50007513      -0.65085388
H       -1.73898599      -1.27388125      -4.13160646
H       -0.33288831       0.12333380      -2.71337700
H       -3.67304824      -4.16973824      -2.76896073
H       -5.87912349      -3.53838876      -2.65892933
H       -5.65827166      -5.27504851      -2.31480729
H       -7.21105265      -4.64826911      -2.88853954
H       -7.22326311      -6.21395412      -4.59274845
H       -5.52053325      -5.46435843      -8.11942607
H       -2.24281826      -3.46586814      -7.79985207
H       -0.14276975      -4.61718982      -8.38626168
H        0.19524557      -6.99233002      -7.78068927
H       -3.70637740      -7.09418869      -5.96948190
C       -0.88145442       0.88145442       0.88145442
C       -0.29683139       1.76457444       1.78464761
C       -1.10836296       2.56138264       2.59954954
C       -2.50512029       2.49955828       2.49809897
C       -3.07565600       1.61142792       1.58276079
C       -2.26683082       0.79706698       0.78142407
N       -3.25601302       3.34503564       3.34435877
C       -4.58967462       3.66901631       3.21527532
O       -5.36031108       3.23346379       2.36468076
C       -5.12136031       4.61904227       4.24765119
C       -4.48935648       5.72122790       4.70379140
C       -3.13984924       6.23810470       4.28837231
N       -5.14738087       6.52483052       5.60965798
C       -6.45614541       6.40927866       5.96646930
O       -6.98889249       7.20213195       6.73386119
N       -7.14312946       5.39354600       5.39682995
C       -6.53531011       4.29155326       4.67453666
H       -7.16711968       4.19251446       3.78246376
C       -6.65406546       3.02102885       5.50525296
C       -7.28971675       1.88972347       4.96622784
C       -7.46404895       0.73515978       5.73236769
C       -6.99890489       0.69098925       7.04548314
C       -6.35155890       1.80023391       7.58393752
Br      -5.72046603       1.74368175       9.36536316
C       -6.17369627       2.95744935       6.82499008
H        0.78461462       1.84329630       1.85991305
H       -0.62890177       3.25041305       3.28997640
H       -4.15204855       1.50636989       1.48605525
H       -2.73319186       0.10202131       0.08771834
H       -2.73548048       3.78896626       4.08730047
H       -2.86949714       5.93318392       3.27376053
H       -2.36915340       5.89312875       4.98584533
H       -3.12470510       7.33418847       4.28896772
H       -4.69230760       7.34624396       5.99141411
H       -8.10559578       5.30706605       5.69165592
H       -7.66248992       1.90364347       3.94240508
H       -7.96901883      -0.12812812       5.30533053
H       -7.14760195      -0.20779479       7.63796656
H       -5.68163899       3.82054095       7.26786805
C        0.88145442      -0.88145442       0.88145442
C        1.11780539      -0.52280324       2.20544480
C        1.93650632      -1.32668580       3.00610302
C        2.50084450      -2.50467091       2.49726214
C        2.24937132      -2.85276770       1.16770568
C        1.44848013      -2.03923639       0.35760535
N        3.30421225      -3.27027613       3.37091905
C        3.70325338      -4.57771268       3.19300019
O        3.46363186      -5.27989365       2.21493012
C        4.53345805      -5.15126221       4.30333351
C        4.30751150      -4.98328876       5.62357552
C        3.19545353      -4.20290801       6.26796470
N        5.13139593      -5.63422697       6.51624646
C        6.05761705      -6.57901094       6.19526538
O        6.71141887      -7.16034062       7.05312614
N        6.18742225      -6.86576046       4.88032270
C        5.62859417      -6.06816715       3.80463871
H        5.19227500      -6.81781765       3.13200525
C        6.75554419      -5.34927924       3.07552384
C        6.92191615      -5.53154064       1.69221127
C        7.98550753      -4.93088120       1.01518769
C        8.89384399      -4.13294483       1.70858846
C        8.72819348      -3.93102896       3.07650788
Br       9.95946078      -2.84999041       4.02005976
C        7.66828176      -4.52779884       3.76005510
H        0.66902249       0.37434015       2.62391240
H        2.09835442      -1.03141457       4.03952224
H        2.68556408      -3.74005498       0.71885465
H        1.27971727      -2.32172174      -0.67850751
H        3.56381316      -2.81414575       4.23378829
H        2.30859119      -4.13587796       5.63197242
H        3.53574002      -3.19279129       6.51959617
H        2.86665135      -4.68559864       7.19561131
H        5.00541963      -5.51015812       7.51438792
H        6.89631191      -7.55033602       4.65766982
H        6.22430123      -6.15291393       1.13132331
H        8.10823720      -5.09135065      -0.05336661
H        9.72437453      -3.67744413       1.17595508
H        7.56478679      -4.37345307       4.83180812
