157
Properties=species:S:1:pos:R:3 pbc="F F F"
C        0.00000000       0.00000000       0.00000000
C        0.88119853       0.88119853      -0.88119853
C        2.23878846       1.00391021      -0.60192063
C        3.04502987       1.80290831      -1.41902316
C        2.49528707       2.49933133      -2.50494912
C        1.12957291       2.37146620      -2.76652695
C        0.32345855       1.55809680      -1.96177514
N        3.37796428       3.28441433      -3.27821582
C        3.04071478       4.20762275      -4.24721659
O        1.90472271       4.46042908      -4.62875728
C        4.21206474       4.85418584      -4.92667125
C        5.35852260       5.24326783      -4.32745843
C        5.64220445       5.27707282      -2.85222862
N        6.39207588       5.70057712      -5.12111619
C        6.39832461       5.67639367      -6.48322508
S        7.72642450       6.15883620      -7.35363962
N        5.28011528       5.21134506      -7.09266576
C        4.00179415       5.06698563      -6.41115892
H        3.57055279       4.15291785      -6.83990523
C        3.10899309       6.25545134      -6.75434497
C        1.92770179       6.05482005      -7.48923281
C        1.09020809       7.12657476      -7.80820174
C        1.42025883       8.41705243      -7.39958382
C        2.58926193       8.62970766      -6.67392554
Br       3.03715321      10.37847772      -6.11089943
C        3.43190434       7.56423207      -6.35399328
H        2.67858755       0.48677512       0.24676275
H        4.10124821       1.88851235      -1.17839953
H        0.65776196       2.87399029      -3.60620457
H       -0.73439665       1.46408068      -2.19161664
H        4.35876399       3.15390116      -3.07913945
H        6.22240072       4.39673785      -2.55670646
H        4.72893073       5.32094311      -2.25227007
H        6.22538125       6.16724280      -2.59014951
H        7.25362764       6.02008837      -4.68797486
H        5.26803531       5.26998535      -8.10302505
H        1.63797798       5.05318638      -7.80146940
H        0.17427464       6.95148861      -8.36708182
H        0.76034828       9.24420204      -7.64601930
H        4.33994234       7.75318406      -5.78722348
C       -0.88119853      -0.88119853      -0.88119853
C       -1.98254142      -0.33179758      -1.53028030
C       -2.78046533      -1.14013220      -2.34636381
C       -2.49469386      -2.50432379      -2.50054988
C       -1.39034359      -3.04141860      -1.83580387
C       -0.57906737      -2.23122542      -1.03303771
N       -3.35047449      -3.24923743      -3.34088252
C       -3.39617550      -4.62192585      -3.47745278
O       -2.65605720      -5.42077724      -2.91707463
C       -4.39078250      -5.11506674      -4.48707259
C       -5.62709863      -4.61057810      -4.69157213
C       -6.33438567      -3.58189211      -3.85522811
N       -6.36659415      -5.09425460      -5.75292043
C       -5.90155946      -5.95955963      -6.69682428
S       -6.83329734      -6.41214878      -7.99345420
N       -4.63186361      -6.40931065      -6.54295184
C       -3.89066389      -6.29401086      -5.29526395
H       -2.85969925      -6.09055831      -5.61311830
C       -3.93686993      -7.62705213      -4.55486735
C       -2.75383528      -8.36010221      -4.35781715
C       -2.77020237      -9.57916929      -3.67561293
C       -3.96950915     -10.08687845      -3.18050749
C       -5.14886682      -9.37213544      -3.37189287
Br      -6.77761309     -10.05390874      -2.69500852
C       -5.14041747      -8.15502401      -4.05468821
H       -2.23044214       0.71917564      -1.40733342
H       -3.63869162      -0.69079507      -2.83867340
H       -1.11406155      -4.08721322      -1.93668205
H        0.28214691      -2.66835613      -0.53509145
H       -4.00302444      -2.70413626      -3.88464390
H       -6.25841781      -2.59467391      -4.32275332
H       -5.93790113      -3.52670735      -2.83753542
H       -7.39827416      -3.82655568      -3.75794372
H       -7.30755771      -4.74482529      -5.90930787
H       -4.32517961      -7.10911283      -7.20675327
H       -1.80165578      -7.97401050      -4.71696748
H       -1.84388665     -10.12710489      -3.52185353
H       -3.97277872     -11.03240587      -2.64538503
H       -6.07295765      -7.61408320      -4.19330904
C       -0.88119853       0.88119853       0.88119853
C       -0.80554775       2.26633990       0.77273164
C       -1.62339630       3.06996309       1.57360194
C       -2.50418799       2.49461251       2.50076703
C       -2.56194493       1.10311648       2.60250465
C       -1.75814887       0.29567243       1.78950919
N       -3.29311040       3.37675645       3.27072759
C       -4.06225367       3.06090574       4.37239472
O       -4.22187196       1.93785697       4.83418015
C       -4.82377973       4.21628798       4.95285412
C       -4.36570904       5.48041063       5.08312919
C       -2.96296730       5.96362081       4.84491778
N       -5.24290677       6.45564374       5.51521867
C       -6.57943968       6.27289655       5.70560713
S       -7.57476655       7.52975966       6.13437410
N       -7.06229083       5.02302922       5.49880604
C       -6.21365659       3.84252794       5.42375417
H       -6.68915087       3.21828415       4.65594084
C       -6.24701715       3.11016455       6.76160771
C       -6.80669324       1.82327079       6.84179061
C       -6.84094810       1.12988004       8.05415644
C       -6.31804135       1.71179978       9.20705396
C       -5.76382047       2.98731769       9.14175696
Br      -5.04622048       3.77777404      10.70253584
C       -5.72858265       3.68686582       7.93468122
H       -0.11509857       2.73021135       0.07329000
H       -1.54304850       4.14923121       1.47588038
H       -3.24052032       0.60685298       3.29058352
H       -1.82883536      -0.78505904       1.87752436
H       -3.27086087       4.34251894       2.97842479
H       -2.88504878       6.43236591       3.85843034
H       -2.22611436       5.15878521       4.91724434
H       -2.67770452       6.71005868       5.59501036
H       -4.91177204       7.40756661       5.64235223
H       -8.04063856       4.88320701       5.71720014
H       -7.20245301       1.33945682       5.95072394
H       -7.26686662       0.13047039       8.09550806
H       -6.34259809       1.16336491      10.14460663
H       -5.29181800       4.68181237       7.90671951
C        0.88119853      -0.88119853       0.88119853
C        0.65972051      -0.93089946       2.25399932
C        1.46180479      -1.74886808       3.05628847
C        2.50153167      -2.50364814       2.49438772
C        2.71531279      -2.43615810       1.11609518
C        1.90266042      -1.63276841       0.30790166
N        3.26439098      -3.30187738       3.37432608
C        4.44797516      -3.95403170       3.09354727
O        5.00719845      -3.98239570       2.00431492
C        4.99909433      -4.76270359       4.23112391
C        4.99202262      -4.40381406       5.53341217
C        4.59999210      -3.06936038       6.10215341
N        5.41943294      -5.32375404       6.47058220
C        5.73509908      -6.62139973       6.20144455
S        6.14731053      -7.68262804       7.40896175
N        5.66712507      -7.01203716       4.90496386
C        5.61272216      -6.07554245       3.79167409
H        4.93830502      -6.55495135       3.07011949
C        7.00137063      -5.94341735       3.17400142
C        7.22782678      -6.38501881       1.85890905
C        8.48886505      -6.26678515       1.26933438
C        9.54513512      -5.70686863       1.98489134
C        9.33480760      -5.26857643       3.28951110
Br      10.76375212      -4.50116029       4.26161794
C        8.07846482      -5.38594118       3.88572369
H       -0.12913385      -0.33819049       2.70954327
H        1.27431505      -1.76735529       4.12648975
H        3.49439139      -3.01522871       0.62833672
H        2.07980863      -1.60531257      -0.76382053
H        2.89727846      -3.38362147       4.31090467
H        3.57709218      -3.10782303       6.49092982
H        4.67228039      -2.26407245       5.36579107
H        5.26332612      -2.79058153       6.92886591
H        5.44411046      -5.06496487       7.45261554
H        5.97717356      -7.95528506       4.70858709
H        6.41337674      -6.80657548       1.27268154
H        8.64321671      -6.60268487       0.24694348
H       10.52111193      -5.61248767       1.51697003
H        7.93684935      -5.03785341       4.90564713
