186
Properties=species:S:1:pos:R:3 pbc="F F F"
C        1.79110256       1.79110256      -1.79110256
C        3.14869248       1.91381423      -1.51182465
C        3.95493390       2.71281233      -2.32892718
C        3.40519110       3.40923536      -3.41485315
C        2.03947694       3.28137023      -3.67643097
C        1.23336257       2.46800083      -2.87167916
N        4.28786831       4.19431836      -4.18811984
C        3.95061881       5.11752678      -5.15712062
O        2.81462673       5.37033311      -5.53866130
C        5.12196876       5.76408987      -5.83657527
C        6.26842662       6.15317186      -5.23736245
C        6.55210847       6.18697685      -3.76213265
N        7.30197990       6.61048114      -6.03102021
C        7.30822864       6.58629770      -7.39312911
S        8.63632853       7.06874022      -8.26354364
N        6.19001931       6.12124908      -8.00256978
C        4.91169817       5.97688966      -7.32106294
H        4.48045681       5.06282187      -7.74980925
C        4.01889711       7.16535537      -7.66424900
C        2.83760581       6.96472407      -8.39913683
C        2.00011211       8.03647878      -8.71810576
C        2.33016285       9.32695646      -8.30948785
C        3.49916595       9.53961169      -7.58382956
C        4.34180836       8.47413610      -7.26389730
H        3.58849157       1.39667914      -0.66314128
H        5.01115223       2.79841638      -2.08830356
H        1.56766598       3.78389432      -4.51610860
H        0.17550737       2.37398471      -3.10152067
H        5.26866802       4.06380519      -3.98904347
H        7.13230474       5.30664187      -3.46661049
H        5.63883476       6.23084713      -3.16217409
H        7.13528527       7.07714682      -3.50005354
H        8.16353167       6.92999240      -5.59787888
H        6.17793934       6.17988938      -9.01292907
H        2.54788201       5.96309041      -8.71137342
H        1.08417866       7.86139263      -9.27698585
H        1.67025231      10.15410607      -8.55592333
H        5.24984636       8.66308809      -6.69712751
C        3.84023977      10.87131809      -7.15507939
C        4.12588909      11.98662220      -6.79600111
Br       4.58775989      13.78997461      -6.21540192
C       -1.79110256      -1.79110256      -1.79110256
C       -2.16661493      -3.05660692      -1.35110952
C       -2.98402491      -3.85614159      -2.15650691
C       -3.41196598      -3.40419644      -3.41311718
C       -3.01951173      -2.13486191      -3.84290450
C       -2.21671105      -1.32489777      -3.03143375
N       -4.23353626      -4.27358274      -4.16318752
C       -4.59712679      -4.14018049      -5.48795892
O       -4.29809729      -3.20520097      -6.22032288
C       -5.51967011      -5.21100147      -5.99196232
C       -5.45013323      -6.52451653      -5.68431117
C       -4.35392415      -7.21981901      -4.92747480
N       -6.45887331      -7.35720480      -6.12740314
C       -7.59603254      -6.94042110      -6.75120180
S       -8.80032719      -8.00557805      -7.16270716
N       -7.71031559      -5.61118355      -6.99233903
C       -6.58402045      -4.69054379      -6.93508652
H       -7.00977603      -3.77125635      -6.51205554
C       -6.08656719      -4.41185812      -8.35007617
C       -6.19504719      -3.11796947      -8.88845005
C       -5.73894858      -2.83701393     -10.17873415
C       -5.16844158      -3.84494975     -10.95321583
C       -5.05814880      -5.13159038     -10.43286803
C       -5.51399881      -5.42007243      -9.14577052
H       -1.82880286      -3.43108553      -0.38842360
H       -3.25983873      -4.84307383      -1.79495961
H       -3.33910153      -1.72968687      -4.79888049
H       -1.93373604      -0.33587301      -3.38140369
H       -4.57310184      -5.08315085      -3.66526399
H       -4.64976565      -7.37157947      -3.88421199
H       -3.41141639      -6.66584485      -4.95459474
H       -4.14528168      -8.20325089      -5.36395307
H       -6.41264198      -8.35198251      -5.92677846
H       -8.52281446      -5.32450191      -7.52344141
H       -6.61788481      -2.30936561      -8.29509542
H       -5.81990361      -1.82781453     -10.57483900
H       -4.81023000      -3.61682066     -11.95323105
H       -5.41859502      -6.43169030      -8.75977665
C       -4.46378636      -6.17425693     -11.22859395
C       -3.96600782      -7.04749017     -11.89501441
Br      -3.16114202      -8.45943447     -12.97255994
C       -1.79110256       1.79110256       1.79110256
C       -1.20646327       2.68558553       2.68228257
C       -2.01756462       3.49975102       3.47935777
C       -3.41496824       3.40894445       3.40536690
C       -3.98542246       2.50042419       2.51143148
C       -3.17661768       1.69729830       1.69912658
N       -4.15999644       4.26539754       4.24491253
C       -5.51568332       4.21129431       4.49828857
O       -6.30717703       3.42798411       3.98846000
C       -6.02345274       5.29177520       5.40740597
C       -5.38956691       5.76848985       6.50090417
C       -4.14628935       5.21605803       7.13887058
N       -5.93293363       6.85838546       7.15216217
C       -7.00025498       7.57924897       6.70815149
S       -7.52509211       8.93510487       7.50841541
N       -7.59388415       7.15416239       5.56579163
C       -7.37924860       5.82983105       5.00057112
H       -7.37998478       5.99751737       3.91558579
C       -8.55040014       4.92569429       5.37240705
C       -9.40098795       4.43264250       4.36783626
C      -10.47483415       3.59651811       4.68334439
C      -10.71761914       3.24063811       6.00834991
C       -9.88447606       3.72495074       7.01318040
C       -8.81151188       4.56269032       6.70563957
H       -0.12527136       2.75609321       2.76694742
H       -1.53903870       4.18663005       4.17220341
H       -5.06192371       2.40439955       2.40134564
H       -3.64271995       1.00615600       1.00213680
H       -3.62578883       4.98189606       4.71383178
H       -3.27146218       5.79986030       6.83423463
H       -3.97958515       4.16491993       6.88735089
H       -4.21775556       5.26322454       8.23150553
H       -5.48430751       7.21703303       7.99006240
H       -8.43065546       7.65152949       5.28857284
H       -9.21917842       4.67966251       3.32350491
H      -11.11552010       3.21467558       3.89236147
H      -11.55085323       2.58471112       6.24471735
H       -8.17425097       4.92980175       7.50600924
C      -10.12924589       3.35440062       8.38299073
C      -10.33424063       3.04406490       9.53020688
Br     -10.66569978       2.54227828      11.38515837
C        1.79110256      -1.79110256       1.79110256
C        1.69718801      -1.70071931       3.17642405
C        2.49791830      -2.51853905       3.98021607
C        3.41057602      -3.41415237       3.40455121
C        3.49787513      -3.48663918       2.01276382
C        2.68484424      -2.68278747       1.20541085
N        4.18146690      -4.20196662       4.28687299
C        5.27229511      -4.98512143       3.96784966
O        5.72127582      -5.16039826       2.84194706
C        5.85669501      -5.74096009       5.12497881
C        6.00406489      -5.27176574       6.38313031
C        5.78452268      -3.86202408       6.85467121
N        6.43717450      -6.14356352       7.36274323
C        6.61254390      -7.48366354       7.19144800
S        7.04397136      -8.47076847       8.45387256
N        6.38855312      -7.97673316       5.94855189
C        6.31011995      -7.13907631       4.76045451
H        5.53147564      -7.61303265       4.14857964
C        7.64021893      -7.19298049       4.01530206
C        7.70205757      -7.76609093       2.73331821
C        8.90706052      -7.81925516       2.02838098
C       10.07079721      -7.30214373       2.59366622
C       10.02367592      -6.73474841       3.86418287
C        8.82403357      -6.68059327       4.57521492
H        1.00924398      -0.99879721       3.64027079
H        2.41174792      -2.42658263       5.05954161
H        4.17425198      -4.17689491       1.51652200
H        2.76138988      -2.76500128       0.12462159
H        3.89903098      -4.16728414       5.25520156
H        4.80356912      -3.76966551       7.33232247
H        5.85609268      -3.13390077       6.04186254
H        6.54478904      -3.57689904       7.59079756
H        6.57704196      -5.80434014       8.31002085
H        6.59588518      -8.95853879       5.81633381
H        6.80235697      -8.15770816       2.26228070
H        8.93425401      -8.25539939       1.03290374
H       11.00255336      -7.34144424       2.03628411
H        8.81029118      -6.23378136       5.56598942
C       11.22349245      -6.19424390       4.44890089
C       12.22833880      -5.74157138       4.93860223
Br      13.85309036      -5.00963819       5.73040788
C       -0.00445707       0.01189536      -1.78238275
H       -0.66409135       0.67374010      -2.43557963
H        0.65740317      -0.63156657      -2.45157240
C       -0.90989263      -0.90692880      -0.91072765
C        0.90977584       0.90977584      -0.90977584
C       -0.00465871       1.77757030       0.00794375
H       -0.66225468       2.44313916      -0.64384735
H        0.64322798       2.43503045       0.67728295
C       -1.78241447       0.00034974      -0.00472694
H       -2.45427497      -0.65498947       0.64260836
H       -2.43311707       0.67328779      -0.65473579
C       -0.91132561       0.90220522       0.91563759
C       -0.01476271      -0.02253852       1.78660255
H       -0.67934791      -0.69751639       2.42135241
H        0.63392994       0.61504881       2.47327442
C        0.01484550      -1.77751727      -0.01636693
H        0.67870853      -2.42144646      -0.68295456
H       -0.62264859      -2.45592969       0.64226336
C        1.78714474       0.01002794       0.00389507
H        2.44202412       0.67113390       0.66197326
H        2.45385902      -0.65136977      -0.64189061
C        0.91606151      -0.90478549       0.90901405
