161
Properties=species:S:1:pos:R:3 pbc="F F F"
C        0.00000000       0.00000000       0.00000000
N        4.86268346       3.40702582       0.00566932
C        3.95227564       2.95373941      -0.54698011
C        2.80162320       2.33446871      -1.14961602
C        1.99728991       1.51400817      -0.34063893
C        0.88119939       0.88119939      -0.88119939
C        0.56331760       1.04625317      -2.22403382
C        1.36029537       1.86062132      -3.03253601
C        2.47788728       2.52442329      -2.50521962
O        3.28246641       3.36509826      -3.23597022
C        2.92162077       3.57379117      -4.60069560
C        3.77725212       4.62719635      -5.30021122
O        4.60718779       5.33525955      -4.73202016
N        3.56699613       4.77293314      -6.65716884
N        2.65967992       4.02853900      -7.36500189
C        2.67490334       4.24818724      -8.64577262
C        1.79297713       3.57619921      -9.55780646
C        0.77742399       2.65739781      -9.39534390
C        0.27036563       2.38119327     -10.69276766
C        1.00528513       3.14229722     -11.58179651
O        1.93266684       3.86747024     -10.88548619
C        0.99371288       3.33208551     -13.03314197
C        0.04014045       2.68540643     -13.83558481
C        0.01966087       2.87198650     -15.22360480
C        0.95653392       3.70831729     -15.82410464
Br       0.92776716       3.96473187     -17.69616999
C        1.91360404       4.35758420     -15.05108944
C        1.92989454       4.16851085     -13.66460207
H        2.24520384       1.37328517       0.71026036
H       -0.30296467       0.55081459      -2.65625266
H        1.07285678       1.95470624      -4.07542069
H        1.88856450       3.93722402      -4.66059410
H        3.04334672       2.63084460      -5.14632867
H        4.13699437       5.47735345      -7.11693243
H        3.37984503       4.96873554      -9.09834451
H        0.43900845       2.24253615      -8.45590708
H       -0.53746180       1.70784557     -10.94402656
H       -0.70501288       2.02859690     -13.39353437
H       -0.73078203       2.36228676     -15.82256127
H        2.64939485       5.01212150     -15.51112949
H        2.68752801       4.68703526     -13.08055695
N       -0.04828844      -3.24129363      -4.97445790
C       -0.59292439      -2.81262075      -4.04745002
C       -1.17910709      -2.24388635      -2.86271448
C       -0.36403288      -1.44215325      -2.04575088
C       -0.88119939      -0.88119939      -0.88119939
C       -2.19994332      -1.12024756      -0.51341371
C       -3.01413506      -1.91714017      -1.32217748
C       -2.52092090      -2.47619654      -2.51041275
O       -3.27675706      -3.23982076      -3.36695706
C       -4.64471177      -3.43859474      -3.01280104
C       -5.44793680      -4.17345464      -4.08326825
O       -5.01879704      -4.45441934      -5.20125111
N       -6.74054637      -4.51683761      -3.73971414
N       -7.29697695      -4.23747879      -2.51876507
C       -8.49114186      -4.72313834      -2.35458300
C       -9.24710103      -4.53053637      -1.14934540
C       -9.00913414      -3.84364784       0.02261629
C      -10.15777956      -4.02441857       0.83787157
C      -11.03680076      -4.81626119       0.12368309
O      -10.47666388      -5.12317510      -1.08578428
C      -12.37345528      -5.35832473       0.37283965
C      -13.06542414      -5.05096840       1.55526084
C      -14.34852175      -5.55981939       1.79308897
C      -14.95276422      -6.38465462       0.84846299
Br     -16.68562896      -7.06862631       1.16558625
C      -14.28632163      -6.70658190      -0.32937415
C      -13.00468697      -6.19545164      -0.56286886
H        0.67259066      -1.25758204      -2.32323727
H       -2.61050595      -0.69132641       0.39772978
H       -4.03549678      -2.07733323      -0.99015370
H       -5.13874246      -2.46858299      -2.87905718
H       -4.68861772      -4.03671180      -2.09519048
H       -7.27135920      -5.00302893      -4.45689212
H       -8.98450118      -5.31840730      -3.14401659
H       -8.11943663      -3.27601104       0.25799599
H      -10.32129493      -3.62057665       1.82746126
H      -12.61906097      -4.40740551       2.30934808
H      -14.86463464      -5.30457513       2.71514378
H      -14.74991733      -7.35019796      -1.07253055
H      -12.50311848      -6.46064761      -1.49135413
N       -5.36364681       2.51760003       0.38279313
C       -4.30646664       2.33098147       0.81554707
C       -2.97676994       2.03180115       1.27713684
C       -2.17008149       1.21096149       0.47089402
C       -0.88119939       0.88119939       0.88119939
C       -0.38980752       1.35009228       2.09370480
C       -1.18827976       2.16612188       2.89905107
C       -2.48244881       2.52819527       2.49688612
O       -3.30580640       3.35352991       3.22419857
C       -2.77769604       3.87577056       4.44264094
C       -3.69637977       4.89287061       5.11540932
O       -4.72711470       5.33607214       4.61128066
N       -3.30320879       5.32851574       6.36537359
N       -2.16817864       4.88939139       6.99565077
C       -2.01973314       5.34578893       8.20334113
C       -0.89045339       5.01194395       9.02458546
C        0.24331725       4.25403948       8.81944347
C        0.99539631       4.31733453      10.02238833
C        0.28015909       5.10722703      10.90231092
O       -0.86875510       5.52673909      10.29012907
C        0.48764261       5.57179989      12.27478307
C        1.66384684       5.25288318      12.97209535
C        1.87041490       5.70360634      14.28206073
C        0.89892170       6.47848217      14.90939537
Br       1.17771871       7.09118654      16.67520120
C       -0.27644682       6.80499983      14.24083102
C       -0.47823414       6.35282921      12.93194411
H       -2.55159088       0.83296037      -0.47632260
H        0.61344030       1.09243836       2.42510452
H       -0.76082496       2.50376815       3.83839061
H       -1.83778412       4.40482174       4.24377676
H       -2.62679078       3.04820539       5.14552384
H       -3.91672401       6.00746713       6.80708911
H       -2.76814857       6.01733082       8.66144568
H        0.50003794       3.72608607       7.91140355
H        1.94722596       3.84327814      10.21835815
H        2.44062933       4.65152193      12.50622580
H        2.79099356       5.44561719      14.79944237
H       -1.04084305       7.40912061      14.72268218
H       -1.40507925       6.62107505      12.42896592
N        0.01319163      -3.34596142       4.90488692
C        0.56789384      -2.88602892       3.99907241
C        1.16654153      -2.27967050       2.83949590
C        0.35179454      -1.47789063       2.02225183
C        0.88119939      -0.88119939       0.88119939
C        2.21224918      -1.08440724       0.53694817
C        3.02618273      -1.88119079       1.34607919
C        2.52017904      -2.47599050       2.51136065
O        3.27405930      -3.24178063       3.36769496
C        4.65314251      -3.40398847       3.03897657
C        5.44925939      -4.14463634       4.11076397
O        5.00279181      -4.45860623       5.21306945
N        6.75592328      -4.45320467       3.78797016
N        7.33182971      -4.13593761       2.58545348
C        8.53937610      -4.59265782       2.43682928
C        9.31625803      -4.35823909       1.25248567
C        9.08831606      -3.65143459       0.09041505
C       10.25752521      -3.79033909      -0.70353774
C       11.13814432      -4.57867053       0.01256402
O       10.55936898      -4.92331097       1.20294331
C       12.49112249      -5.08693385      -0.21911598
C       13.20109003      -4.73965381      -1.37961215
C       14.49958129      -5.21609309      -1.60042221
C       15.10139794      -6.04816055      -0.66060265
Br      16.85489648      -6.68844836      -0.95467582
C       14.41735562      -6.40936789       0.49555417
C       13.12036892      -5.93052618       0.71211236
H       -0.69418536      -1.32124058       2.28117343
H        2.63259911      -0.62739559      -0.35589212
H        4.05753265      -2.01262077       1.03283029
H        5.12887312      -2.42111865       2.93639086
H        4.72926309      -3.98114079       2.11011612
H        7.28184492      -4.94343093       4.50600440
H        9.02868731      -5.19425846       3.22397930
H        8.19175847      -3.09774665      -0.15205344
H       10.43313464      -3.36191498      -1.68063929
H       12.75696791      -4.08955159      -2.12940110
H       15.02940494      -4.93021856      -2.50555750
H       14.87893408      -7.05892440       1.23478735
H       12.60516186      -6.22617972       1.62377865
