190
Properties=species:S:1:pos:R:3 pbc="F F F"
N        5.77258749       4.31692985      -0.90423471
C        4.86217966       3.86364344      -1.45688414
C        3.71152722       3.24437274      -2.05952004
C        2.90719393       2.42391219      -1.25054295
C        1.79110341       1.79110341      -1.79110341
C        1.47322162       1.95615720      -3.13393784
C        2.27019939       2.77052535      -3.94244004
C        3.38779130       3.43432732      -3.41512365
O        4.19237043       4.27500228      -4.14587424
C        3.83152480       4.48369519      -5.51059962
C        4.68715615       5.53710038      -6.21011525
O        5.51709181       6.24516358      -5.64192418
N        4.47690016       5.68283717      -7.56707287
N        3.56958394       4.93844302      -8.27490591
C        3.58480736       5.15809127      -9.55567665
C        2.70288116       4.48610323     -10.46771048
C        1.68732801       3.56730184     -10.30524793
C        1.18026966       3.29109729     -11.60267168
C        1.91518915       4.05220125     -12.49170054
O        2.84257086       4.77737426     -11.79539021
C        1.90361690       4.24198953     -13.94304600
C        0.95004448       3.59531046     -14.74548883
C        0.92956490       3.78189053     -16.13350882
C        1.86643794       4.61822131     -16.73400866
C        2.82350807       5.26748822     -15.96099346
C        2.83979856       5.07841488     -14.57450610
H        3.15510786       2.28318919      -0.19964367
H        0.60693935       1.46071861      -3.56615669
H        1.98276080       2.86461027      -4.98532472
H        2.79846853       4.84712804      -5.57049813
H        3.95325075       3.54074863      -6.05623270
H        5.04689839       6.38725748      -8.02683645
H        4.28974905       5.87863956     -10.00824853
H        1.34891247       3.15244017      -9.36581111
H        0.37244222       2.61774960     -11.85393059
H        0.20489115       2.93850093     -14.30343840
H        0.17912200       3.27219079     -16.73246529
H        3.55929888       5.92202552     -16.42103351
H        3.59743203       5.59693929     -13.99046097
C        1.84451767       4.81360929     -18.16052296
C        1.82615944       4.97724673     -19.35522868
Br       1.79647573       5.24183462     -21.28696679
N       -4.13873646      -0.96260098      -5.89241461
C       -3.73897547      -1.49700851      -4.94672327
C       -3.18386989      -2.07836961      -3.75318050
C       -2.36325885      -1.26997401      -2.94841621
C       -1.79110341      -1.79110341      -1.79110341
C       -2.01696141      -3.11451376      -1.43184150
C       -2.83173294      -3.92238030      -2.22905153
C       -3.43527704      -3.41342731      -3.38853792
O       -4.27317282      -4.14298773      -4.19708640
C       -4.54495495      -5.48511367      -3.79575100
C       -5.59232284      -6.17777986      -4.66426907
O       -6.24881980      -5.61578457      -5.53957520
N       -5.79557224      -7.51996578      -4.41127217
N       -5.11071939      -8.21985173      -3.45236176
C       -5.37691964      -9.49165679      -3.42999884
C       -4.77102633     -10.39382987      -2.49183868
C       -3.88365935     -10.22678810      -1.44943033
C       -3.67391117     -11.51359101      -0.88653646
C       -4.44068219     -12.40148202      -1.61692672
O       -5.10604977     -11.71453167      -2.59475389
C       -4.68432876     -13.84371027      -1.56061340
C       -4.10221240     -14.63288353      -0.55574784
C       -4.34062989     -16.01165491      -0.49267945
C       -5.16464856     -16.61618626      -1.43783310
C       -5.75031330     -15.85643882      -2.44523762
C       -5.50961199     -14.47913201      -2.50397554
H       -2.17499654      -0.23465631      -3.22828787
H       -1.56907409      -3.53178623      -0.53295434
H       -2.97453236      -4.94989554      -1.90826789
H       -4.94697879      -5.49374662      -2.77536929
H       -3.61909907      -6.06816964      -3.86296336
H       -6.49573647      -7.97507942      -4.99017642
H       -6.08811024      -9.94400544      -4.14452146
H       -3.44666238      -9.29087292      -1.12962845
H       -3.03956937     -11.75865246      -0.04590057
H       -3.45650018     -14.18728075       0.19695046
H       -3.88053648     -16.60023919       0.29699759
H       -6.39475588     -16.31974212      -3.18785991
H       -5.97881356     -13.90539057      -3.30062816
C       -5.41333791     -18.03303353      -1.37227848
C       -5.62161524     -19.21964313      -1.31737648
Br      -5.95838207     -21.13829048      -1.22860460
N       -0.80339943       4.77176003       5.41859258
C       -1.39162012       4.15802501       4.63306212
C       -2.03248419       3.36632135       3.61661446
C       -1.21946197       2.56410686       2.79808024
C       -1.79110341       1.79110341       1.79110341
C       -3.16468460       1.81747008       1.58116199
C       -3.97716165       2.61390917       2.39209397
C       -3.42596849       3.38541030       3.42586348
O       -4.17077562       4.16268152       4.27978983
C       -5.58559890       4.14540154       4.09481917
C       -6.34737720       4.91796311       5.16903146
O       -5.82958113       5.39871335       6.17588509
N       -7.70662388       5.05337483       4.96681149
N       -8.36216926       4.54483072       3.87593290
C       -9.62253839       4.85650298       3.81953390
C      -10.48426028       4.41145331       2.76098129
C      -10.29704710       3.60429271       1.65853796
C      -11.54913782       3.53256853       0.99233228
C      -12.43602822       4.30331824       1.71974448
O      -11.78198694       4.83783142       2.79551698
C      -13.85442732       4.64171519       1.59250992
C      -14.63478927       4.09463471       0.56141978
C      -15.99462229       4.40835567       0.44198629
C      -16.58816433       5.27607046       1.35443312
C      -15.83544601       5.83378577       2.38275797
C      -14.47726011       5.51705511       2.49840431
H       -0.14158441       2.54507277       2.95128354
H       -3.61913293       1.22176263       0.79291909
H       -5.04324702       2.60334444       2.18610433
H       -5.95473699       3.11397040       4.14738730
H       -5.82079480       4.60272081       3.12671646
H       -8.20895101       5.56580692       5.68623440
H      -10.09428242       5.49057290       4.59178183
H       -9.37282855       3.12078711       1.37354809
H      -11.77351846       2.98045858       0.09014536
H      -14.19840455       3.41226929      -0.16384336
H      -16.57792712       3.96925460      -0.36340365
H      -16.29009534       6.51263858       3.09962399
H      -13.90884583       5.96507462       3.31091184
C      -17.98686544       5.59691335       1.23487113
C      -19.15827761       5.86561927       1.13473797
Br     -21.05235202       6.30009402       0.97283111
N        1.04324075      -6.01966965       3.93084164
C        1.55264067      -5.03660294       3.59346363
C        2.10467925      -3.79754575       3.11319499
C        1.29694035      -2.99225229       2.29245642
C        1.79110341      -1.79110341       1.79110341
C        3.08754151      -1.38783023       2.08794493
C        3.89466863      -2.18535452       2.90314164
C        3.41146547      -3.38951681       3.43626000
O        4.13996052      -4.20256273       4.27072371
C        5.45139606      -3.75848743       4.61593612
C        6.13703211      -4.64187621       5.65546345
O        5.58654492      -5.56680115       6.25083350
N        7.45768835      -4.34294300       5.92617884
N        8.14340926      -3.32768865       5.31183498
C        9.40109551      -3.26456599       5.63291377
C       10.28639540      -2.26510325       5.10519622
C       10.11145105      -1.19340738       4.25501934
C       11.38050747      -0.56972023       4.12381093
C       12.26662842      -1.29520405       4.89725847
O       11.59542954      -2.32797713       5.49192866
C       13.69391060      -1.19023177       5.20451007
C       14.46257896      -0.12983579       4.69842902
C       15.82644141      -0.02050064       4.99802219
C       16.43654310      -0.97444836       5.80767645
C       15.69721185      -2.03632314       6.31845476
C       14.33471977      -2.14117759       6.01682218
H        0.28314756      -3.30606130       2.04873186
H        3.48399050      -0.45423261       1.69559154
H        4.90078746      -1.82908003       3.10282830
H        5.39984675      -2.75675200       5.05949595
H        6.07429744      -3.76203078       3.71390385
H        7.90804359      -4.93211683       6.62083190
H        9.85404216      -3.98970496       6.33289002
H        9.18142922      -0.89387363       3.79186090
H       11.61519301       0.30664115       3.53557054
H       14.01204545       0.63088626       4.06567128
H       16.39907556       0.81163156       4.59633408
H       16.16503561      -2.78620618       6.95111612
H       13.77682711      -2.98005380       6.42795139
C       17.83788653      -0.86150843       6.11925496
C       19.01151165      -0.76692123       6.38020197
Br      20.90916421      -0.61398173       6.80213121
C       -0.00445707       0.01189536      -1.78238275
H       -0.66409135       0.67374010      -2.43557963
H        0.65740317      -0.63156657      -2.45157240
C       -0.90989263      -0.90692880      -0.91072765
C        0.90977584       0.90977584      -0.90977584
C       -0.00465871       1.77757030       0.00794375
H       -0.66225468       2.44313916      -0.64384735
H        0.64322798       2.43503045       0.67728295
C       -1.78241447       0.00034974      -0.00472694
H       -2.45427497      -0.65498947       0.64260836
H       -2.43311707       0.67328779      -0.65473579
C       -0.91132561       0.90220522       0.91563759
C       -0.01476271      -0.02253852       1.78660255
H       -0.67934791      -0.69751639       2.42135241
H        0.63392994       0.61504881       2.47327442
C        0.01484550      -1.77751727      -0.01636693
H        0.67870853      -2.42144646      -0.68295456
H       -0.62264859      -2.45592969       0.64226336
C        1.78714474       0.01002794       0.00389507
H        2.44202412       0.67113390       0.66197326
H        2.45385902      -0.65136977      -0.64189061
C        0.91606151      -0.90478549       0.90901405
