189
Properties=species:S:1:pos:R:3 pbc="F F F"
C        0.00000000       0.00000000       0.00000000
O       11.06502920      -1.20713978      -3.33400918
C       10.14929492      -0.76137919      -4.01726890
C        8.72482479      -0.74663905      -3.48978844
S        8.10319256       0.95937191      -3.37872415
C        6.43307410       0.65855074      -3.00541819
N        5.88679033      -0.52941352      -3.11188346
N        4.60334076      -0.44372692      -2.66911567
C        4.35283591       0.80888750      -2.32856311
C        3.00502861       1.28131551      -1.98965110
C        2.47678605       2.46876194      -2.51872470
C        1.17258105       2.86770417      -2.21279327
C        0.37374893       2.07429121      -1.39145245
C        0.88198938       0.88198938      -0.88198938
C        2.18541266       0.48209879      -1.17800414
N        5.53137806       1.55801581      -2.44796862
C        5.74724930       2.90596566      -2.03170285
C        5.14094029       3.37778776      -0.85686735
C        5.34512271       4.69457663      -0.43679215
C        6.15803048       5.54741344      -1.17847278
C        6.76308442       5.08766236      -2.34535963
C        6.55686481       3.77378163      -2.77559575
N       10.25815605      -0.27801465      -5.31350443
C       11.41308903      -0.24949303      -6.12026012
C       12.60334985      -0.90641721      -5.79788812
C       13.71138612      -0.83083374      -6.64970844
C       13.63184423      -0.09451072      -7.82781983
C       12.44959430       0.55609256      -8.16915398
C       11.34153417       0.47147796      -7.31976480
H        8.71159337      -1.19944054      -2.49287701
H        8.10897306      -1.35508361      -4.16014070
H        3.06586029       3.09311917      -3.18725857
H        0.77614279       3.79187205      -2.62675941
H       -0.64320505       2.38559952      -1.16658216
H        2.56525694      -0.46135206      -0.78903166
H        4.53211112       2.73376264      -0.22592875
H        4.87707571       5.05142609       0.47788107
H        6.32198325       6.56972923      -0.84629743
H        7.39478139       5.75586925      -2.92648555
H        7.01082280       3.47819452      -3.71690982
H        9.43722557       0.18673903      -5.68344672
H       12.70108480      -1.49939867      -4.89343565
H       14.62662463      -1.35096444      -6.37863903
H       12.37987448       1.13196949      -9.08813903
H       10.42964997       0.98958879      -7.60493279
C       14.77660947      -0.00510000      -8.69679524
C       15.73535036       0.06978148      -9.42456215
Br      17.28555329       0.19085850     -10.60129969
O       -1.00355167     -11.55872553      -0.62962140
C       -1.91631843     -10.74728406      -0.74158213
C       -1.66251920      -9.26284314      -0.54261183
S       -2.03090768      -8.34249022      -2.06789073
C       -1.90061982      -6.71045562      -1.48596759
N       -1.84382788      -6.41678766      -0.20864472
N       -1.66191088      -5.07357628      -0.09324235
C       -1.64741638      -4.54009797      -1.30277218
C       -1.65956029      -3.08949904      -1.52693589
C       -2.51536014      -2.48719246      -2.46172009
C       -2.53577660      -1.09845428      -2.61884761
C       -1.71648029      -0.29384183      -1.82917047
C       -0.88198938      -0.88198938      -0.88198938
C       -0.85197832      -2.26801495      -0.72552232
N       -1.71616854      -5.56669707      -2.25449689
C       -1.56757940      -5.44835803      -3.66898038
C       -0.64635309      -4.53095048      -4.19829184
C       -0.48946765      -4.40602881      -5.58099502
C       -1.24250610      -5.19664940      -6.44476120
C       -2.15890539      -6.10902817      -5.92817284
C       -2.32653507      -6.23366263      -4.54604449
N       -3.24640170     -11.04523622      -1.00200791
C       -3.82509704     -12.32303517      -1.13572391
C       -3.16561850     -13.51272554      -0.81647673
C       -3.80593731     -14.74687971      -0.97744380
C       -5.10984835     -14.79409279      -1.46121221
C       -5.78478484     -13.61727700      -1.77277901
C       -5.14486828     -12.38520565      -1.60270301
H       -0.60981942      -9.11564115      -0.27956927
H       -2.28407850      -8.92167850       0.29172685
H       -3.18835229      -3.08712795      -3.07075779
H       -3.20136623      -0.64426977      -3.34913824
H       -1.74559395       0.78613246      -1.94951513
H       -0.20917631      -2.71500076       0.03124053
H       -0.00872840      -3.92355067      -3.55952345
H        0.23070902      -3.69745804      -5.98387172
H       -1.11394740      -5.10358642      -7.52047608
H       -2.74984634      -6.72346995      -6.60381990
H       -3.08792563      -6.92366712      -4.19433440
H       -3.84557067     -10.25432365      -1.20751701
H       -2.15221308     -13.51657051      -0.42633818
H       -3.27334384     -15.65933501      -0.72162036
H       -6.80356944     -13.64646827      -2.14994529
H       -5.68998628     -11.47935275      -1.85483252
C       -5.76317487     -16.06479291      -1.64033694
C       -6.31033583     -17.12900425      -1.79035391
Br      -7.19504883     -18.84974400      -2.03291866
O        0.92534650      11.21212132       2.90512378
C       -0.11789429      10.60826330       2.67902704
C       -0.09139371       9.16226608       2.21431438
S       -0.93331736       8.08959246       3.41837881
C       -0.96932994       6.59529647       2.53241663
N       -0.69259228       6.52466015       1.25200783
N       -0.72833039       5.21513816       0.88526096
C       -1.06692332       4.48752698       1.93583622
C       -1.38068987       3.05690063       1.83840473
C       -2.50880426       2.49768758       2.45778086
C       -2.80532603       1.14002054       2.30773191
C       -1.98980213       0.32964682       1.52004363
C       -0.88198938       0.88198938       0.88198938
C       -0.57686421       2.23487888       1.03377251
N       -1.15703423       5.32207133       3.05825693
C       -1.33795454       4.92876958       4.41819369
C       -0.72676247       3.75714243       4.89169050
C       -0.89405608       3.36130452       6.22113089
C       -1.66422951       4.13106317       7.08862402
C       -2.27438910       5.29459541       6.62712189
C       -2.11759369       5.69235804       5.29629045
N       -1.39964249      11.13386944       2.76013390
C       -1.76057164      12.46231447       3.06097001
C       -0.85007700      13.52021508       3.12452869
C       -1.28370548      14.81514580       3.43140954
C       -2.63206142      15.05507648       3.67801545
C       -3.55351030      14.01420414       3.60712641
C       -3.11795243      12.72295656       3.29186795
H        0.95076606       8.84139794       2.11439796
H       -0.56972869       9.11369797       1.23060350
H       -3.18089377       3.11167740       3.05366686
H       -3.68090977       0.71822205       2.79564243
H       -2.23272085      -0.72300557       1.39926135
H        0.28123101       2.65927758       0.51488997
H       -0.08359873       3.14876289       4.25944089
H       -0.41240299       2.45557100       6.58264674
H       -1.78740720       3.82567852       8.12492419
H       -2.87935767       5.89328287       7.30449565
H       -2.65306338       6.58011597       4.97274780
H       -2.15797130      10.46618105       2.68325897
H        0.20800313      13.37517508       2.92794983
H       -0.55728669      15.62270484       3.47430769
H       -4.60819446      14.19441495       3.79737359
H       -3.85445909      11.92507191       3.24464056
C       -3.07567786      16.38473211       4.00789475
C       -3.44720662      17.49831870       4.28416867
Br      -4.04793721      19.29889404       4.73088023
O        2.83250850       0.87530656      11.23469665
C        2.61629280      -0.16561939      10.62327244
C        2.16007227      -0.13320823       9.17469368
S        3.37555657      -0.96146784       8.10426422
C        2.49876557      -0.99379290       6.60448456
N        1.21716206      -0.72428670       6.52781150
N        0.85846274      -0.75434684       5.21591993
C        1.91537921      -1.08228324       4.49262408
C        1.82837895      -1.38802615       3.05959012
C        2.45784907      -2.50904216       2.49738147
C        2.31769399      -2.79829340       1.13709109
C        1.52997396      -1.98263423       0.32688440
C        0.88198938      -0.88198938       0.88198938
C        1.02385542      -0.58409599       2.23756418
N        3.03331756      -1.17070182       5.33334311
C        4.39664094      -1.34113221       4.94714465
C        4.87344543      -0.72009632       3.78205365
C        6.20620683      -0.87706737       3.39321729
C        7.07369894      -1.64665717       4.16356058
C        6.60893084      -2.26654038       5.32063519
C        5.27483002      -2.12008702       5.71132515
N        2.70195797      -1.44999474      11.14169311
C        2.99701880      -1.81709488      12.46974243
C        3.04878843      -0.91260848      13.53342385
C        3.35053064      -1.35216792      14.82756227
C        3.60379494      -2.70044424      15.06091417
C        3.54465933      -3.61603055      14.01415097
C        3.23450623      -3.17461395      12.72365676
H        2.05581492       0.91024507       8.85945999
H        1.17956020      -0.61710842       9.11736154
H        3.05408475      -3.18123769       3.11091559
H        2.81336563      -3.66839835       0.71301027
H        1.41694112      -2.21994188      -0.72790637
H        0.49730241       0.26832050       2.66395463
H        4.24098772      -0.07707637       3.17373843
H        6.57022479      -0.38783180       2.49256414
H        8.11252548      -1.76180774       3.86367669
H        7.28633951      -2.87103885       5.91975783
H        4.94921452      -2.66280252       6.59391011
H        2.63362836      -2.20474441      10.46903856
H        2.84672653       0.14513113      13.39352638
H        3.38424117      -0.63037026      15.63968778
H        3.74015937      -4.67062341      14.18920023
H        3.19646945      -3.90658307      11.92111903
C        3.92838741      -3.15006254      16.38985477
C        4.20023361      -3.52661787      17.50284252
Br       4.63978592      -4.13547598      19.30244957
