181
Properties=species:S:1:pos:R:3 pbc="F F F"
C        0.00000000       0.00000000       0.00000000
O       11.06502920      -1.20713978      -3.33400918
C       10.14929492      -0.76137919      -4.01726890
C        8.72482479      -0.74663905      -3.48978844
S        8.10319256       0.95937191      -3.37872415
C        6.43307410       0.65855074      -3.00541819
N        5.88679033      -0.52941352      -3.11188346
N        4.60334076      -0.44372692      -2.66911567
C        4.35283591       0.80888750      -2.32856311
C        3.00502861       1.28131551      -1.98965110
C        2.47678605       2.46876194      -2.51872470
C        1.17258105       2.86770417      -2.21279327
C        0.37374893       2.07429121      -1.39145245
C        0.88198938       0.88198938      -0.88198938
C        2.18541266       0.48209879      -1.17800414
N        5.53137806       1.55801581      -2.44796862
C        5.74724930       2.90596566      -2.03170285
C        5.14094029       3.37778776      -0.85686735
C        5.34512271       4.69457663      -0.43679215
C        6.15803048       5.54741344      -1.17847278
C        6.76308442       5.08766236      -2.34535963
C        6.55686481       3.77378163      -2.77559575
N       10.25815605      -0.27801465      -5.31350443
C       11.41308903      -0.24949303      -6.12026012
C       12.60334985      -0.90641721      -5.79788812
C       13.71138612      -0.83083374      -6.64970844
C       13.63184423      -0.09451072      -7.82781983
Br      15.13405933       0.02281826      -8.96813047
C       12.44959430       0.55609256      -8.16915398
C       11.34153417       0.47147796      -7.31976480
H        8.71159337      -1.19944054      -2.49287701
H        8.10897306      -1.35508361      -4.16014070
H        3.06586029       3.09311917      -3.18725857
H        0.77614279       3.79187205      -2.62675941
H       -0.64320505       2.38559952      -1.16658216
H        2.56525694      -0.46135206      -0.78903166
H        4.53211112       2.73376264      -0.22592875
H        4.87707571       5.05142609       0.47788107
H        6.32198325       6.56972923      -0.84629743
H        7.39478139       5.75586925      -2.92648555
H        7.01082280       3.47819452      -3.71690982
H        9.43722557       0.18673903      -5.68344672
H       12.70108480      -1.49939867      -4.89343565
H       14.62662463      -1.35096444      -6.37863903
H       12.37987448       1.13196949      -9.08813903
H       10.42964997       0.98958879      -7.60493279
O       -1.22780769     -11.54668504      -0.41740587
C       -2.12128298     -10.71951301      -0.56438864
C       -1.84111146      -9.23670653      -0.39015619
S       -2.15976119      -8.34064102      -1.94088641
C       -2.00772442      -6.69995353      -1.38936508
N       -1.97062571      -6.38132195      -0.11731260
N       -1.76352523      -5.03995630      -0.02524798
C       -1.71374692      -4.53182574      -1.24471387
C       -1.69159005      -3.08618483      -1.49822034
C       -2.51586100      -2.48610270      -2.46230900
C       -2.50459225      -1.10075404      -2.64773219
C       -1.68500150      -0.29674371      -1.85774738
C       -0.88198938      -0.88198938      -0.88198938
C       -0.88359852      -2.26483314      -0.69708393
N       -1.78440142      -5.57615930      -2.17680177
C       -1.60498441      -5.48990279      -3.59003061
C       -0.65465168      -4.60227799      -4.11866573
C       -0.46744605      -4.50895595      -5.50008949
C       -1.21902834      -5.30183461      -6.36305375
C       -2.16417679      -6.18479108      -5.84713854
C       -2.36210476      -6.27762166      -4.46651576
N       -3.45169470     -10.99592815      -0.84602298
C       -4.05369793     -12.26430126      -0.96585693
C       -3.42534347     -13.46021345      -0.60926385
C       -4.08750024     -14.68427951      -0.75848108
C       -5.38210839     -14.71517175      -1.26787321
Br      -6.26858941     -16.36953246      -1.48688619
C       -6.02633329     -13.53166011      -1.61684744
C       -5.36480465     -12.30948087      -1.45849141
H       -0.79111664      -9.10534457      -0.10856864
H       -2.47219552      -8.86604540       0.42421077
H       -3.18863982      -3.08475519      -3.07284302
H       -3.14588743      -0.64836087      -3.40052594
H       -1.68950636       0.78089892      -2.00036918
H       -0.26546634      -2.70902855       0.08155835
H       -0.01767062      -3.99484221      -3.47928968
H        0.27508815      -3.82344037      -5.90226851
H       -1.06696851      -5.23348467      -7.43755673
H       -2.75389600      -6.80096244      -6.52227774
H       -3.14442511      -6.94480003      -4.11670200
H       -4.03024115     -10.19750696      -1.07966322
H       -2.42028543     -13.47643571      -0.19840064
H       -3.57900978     -15.60182057      -0.47346887
H       -7.03770764     -13.54808584      -2.01418952
H       -5.88602436     -11.39821165      -1.73993554
O        0.96493740      11.19354667       2.96328933
C       -0.08007869      10.59578945       2.72931648
C       -0.05825521       9.15191792       2.25780105
S       -0.91106209       8.07755840       3.45266813
C       -0.94995926       6.58770134       2.55938243
N       -0.66742007       6.52185438       1.27998582
N       -0.70765215       5.21428571       0.90679164
C       -1.05475499       4.48329816       1.95223337
C       -1.37488017       3.05467591       1.84643915
C       -2.50861247       2.49793155       2.45772867
C       -2.81089225       1.14243550       2.29975074
C       -1.99547734       0.33192870       1.51208655
C       -0.88198938       0.88198938       0.88198938
C       -0.57113755       2.23265842       1.04171962
N       -1.14626462       5.31289458       3.07820330
C       -1.33558637       4.91397437       4.43535707
C       -0.73227717       3.73717901       4.90613922
C       -0.90783828       3.33580297       6.23285024
C       -1.67848077       4.10509678       7.10033915
C       -2.28085376       5.27373517       6.64151748
C       -2.11577473       5.67709292       5.31337454
N       -1.35967619      11.12714784       2.80682179
C       -1.71569555      12.45585773       3.11230284
C       -0.80047373      13.50906061       3.18528644
C       -1.22937985      14.80457700       3.49630398
C       -2.57774241      15.04979564       3.73761530
Br      -3.15360686      16.79531890       4.17608230
C       -3.50380171      14.01370822       3.65733092
C       -3.07290845      12.72190565       3.33796284
H        0.98282757       8.82653257       2.16132484
H       -0.53208992       9.11034540       1.27159483
H       -3.18061377       3.11228669       3.05333758
H       -3.69081236       0.72251848       2.78144341
H       -2.24283883      -0.71895676       1.38509455
H        0.29145552       2.65540747       0.52898459
H       -0.08899966       3.12874655       4.27405631
H       -0.43225759       2.42605174       6.59231140
H       -1.80808801       3.79536038       8.13456151
H       -2.88619983       5.87207692       7.31885944
H       -2.64543890       6.56894588       4.99154237
H       -2.12080791      10.46348152       2.72312190
H        0.25783283      13.35988467       2.99306993
H       -0.49932626      15.60842619       3.54654677
H       -4.55851399      14.19806810       3.84340091
H       -3.81298268      11.92779971       3.28338916
O        2.68015691       0.76808455      11.27982624
C        2.48484833      -0.26762583      10.65271047
C        2.04644254      -0.22255323       9.19897841
S        3.28565949      -1.02186390       8.13376524
C        2.42821334      -1.04613800       6.62269169
N        1.14435426      -0.79176258       6.53314343
N        0.80253402      -0.80966391       5.21653157
C        1.87250851      -1.11512358       4.50265443
C        1.80736097      -1.40372150       3.06491275
C        2.45800334      -2.50953572       2.49673363
C        2.33858852      -2.78323392       1.13125604
C        1.55079572      -1.96729381       0.32140307
C        0.88198938      -0.88198938       0.88198938
C        1.00306431      -0.59956913       2.24288215
N        2.98085532      -1.20018774       5.35631943
C        4.35096459      -1.34860469       4.98534853
C        4.83441251      -0.70690613       3.83427676
C        6.17382690      -0.84221541       3.46044918
C        7.04129400      -1.61058786       4.23203483
C        6.56996638      -2.25088135       5.37525868
C        5.22932303      -2.12612840       5.75079076
N        2.58030308      -1.55730261      11.15604014
C        2.86333281      -1.93750095      12.48302236
C        2.89028537      -1.04600884      13.55852655
C        3.18133997      -1.49814086      14.85077999
C        3.44875061      -2.84599029      15.07041244
Br       3.86026186      -3.45270074      16.81204546
C        3.41436210      -3.74888757      14.01159118
C        3.11482871      -3.29505033      12.72289790
H        1.93290979       0.82342817       8.89554822
H        1.07294609      -0.71793657       9.12314749
H        3.05498624      -3.18193871       3.10931308
H        2.85053837      -3.64160672       0.70262915
H        1.45401110      -2.19259387      -0.73762835
H        0.46043354       0.24070172       2.67320472
H        4.20151820      -0.06419425       3.22609007
H        6.54286500      -0.33706561       2.57069013
H        8.08517479      -1.70889578       3.94393934
H        7.24743082      -2.85439789       5.97530748
H        4.89958643      -2.68403905       6.62230166
H        2.52999252      -2.30425186      10.47316694
H        2.67658502       0.01080573      13.42934249
H        3.19570730      -0.78634225      15.67224966
H        3.62102117      -4.80308423      14.17587760
H        3.09614475      -4.01719468      11.91083212
