182
Properties=species:S:1:pos:R:3 pbc="F F F"
C        1.79126714       1.79126714      -1.79126714
C        2.88521360       2.45114539      -1.23745490
C        3.68404085       3.26500496      -2.04535611
C        3.39299006       3.42236008      -3.40874492
C        2.29216530       2.74821152      -3.95536404
C        1.49280279       1.93381684      -3.14522190
C        4.26501968       4.32624606      -4.22018071
O        5.15254698       4.97167166      -3.66260172
C        3.99601623       4.44112819      -5.71785543
O        4.95323057       5.26772480      -6.38373852
C        6.15182849       4.66673274      -6.61600550
O        6.42044390       3.51786834      -6.29336379
C        7.12439898       5.62686620      -7.27905161
H        7.53219802       6.26596162      -6.48880375
C        6.48639795       6.43338626      -8.40194813
C        6.63916106       5.52792127      -9.60121600
O        5.98455034       5.66923896     -10.62307360
N        7.65812542       4.60964770      -9.31636527
C        8.21740465       4.86205796      -8.00563371
C        8.12994812       3.57935081     -10.17211518
C        7.42180643       3.19675913     -11.31978514
C        7.87621389       2.15808182     -12.14223366
C        9.05484378       1.49252767     -11.82854048
Br       9.66892933       0.08936334     -12.93379113
C        9.78127078       1.85691540     -10.70094901
C        9.31841370       2.89137828      -9.87828326
H        3.12478055       2.34392276      -0.18249716
H        4.53614455       3.77910317      -1.60253475
H        2.02373361       2.83787533      -5.00385877
H        0.63880833       1.41835984      -3.57901131
H        3.02209935       4.92213928      -5.85441590
H        3.96423016       3.45071217      -6.18576230
H        7.04855285       7.35328015      -8.59612084
H        5.43340967       6.67813010      -8.24708553
H        8.49717946       3.93484361      -7.49769194
H        9.10866621       5.48767470      -8.13564257
H        6.48538996       3.67389870     -11.59515118
H        7.29451700       1.88025271     -13.01728359
H       10.70693494       1.34639027     -10.44907737
H        9.92426362       3.14951943      -9.01515534
C       -1.79126714      -1.79126714      -1.79126714
C       -1.23631848      -2.45549450      -2.88200090
C       -2.04831942      -3.25366430      -3.69241820
C       -3.41692194      -3.39106643      -3.41610670
C       -3.96231058      -2.72162693      -2.31180335
C       -3.14821307      -1.92236955      -1.50125892
C       -4.24379959      -4.23585600      -4.33179086
O       -3.73009678      -4.71336636      -5.34335723
C       -5.71629996      -4.44708103      -3.99161887
O       -6.36453821      -5.34120491      -4.89895078
C       -6.09585788      -6.65735102      -4.68135783
O       -5.36426163      -7.07356613      -3.79384827
C       -6.78106537      -7.53267230      -5.71657911
H       -6.16707663      -7.49721957      -6.62266719
C       -8.22271051      -7.11933323      -5.97968860
C       -8.99078049      -7.86407362      -4.91344422
O      -10.12851580      -7.56192436      -4.58642274
N       -8.18896618      -8.92423295      -4.47093926
C       -6.93708981      -8.95140289      -5.19660363
C       -8.52584599      -9.87966523      -3.47590288
C       -9.62191105      -9.69456681      -2.62187282
C       -9.92975906     -10.62527887      -1.62149144
C       -9.14518259     -11.76180716      -1.46892218
Br      -9.55569064     -13.01744061      -0.11895256
C       -8.05722907     -11.97449943      -2.30740669
C       -7.74983866     -11.03699039      -3.30124619
H       -0.17859843      -2.35884328      -3.11375876
H       -1.60561391      -3.76731911      -4.54484944
H       -5.01533309      -2.79396283      -2.05617180
H       -3.58266308      -1.40438442      -0.64913198
H       -6.23001008      -3.48473074      -4.08391372
H       -5.83152393      -4.80639152      -2.96278919
H       -8.56385368      -7.47676741      -6.95733276
H       -8.41206436      -6.04675191      -5.89980903
H       -6.10497260      -9.26481628      -4.55992614
H       -7.04549153      -9.65971067      -6.02678127
H      -10.25245920      -8.81241536      -2.68956528
H      -10.77994779     -10.44259422      -0.96951128
H       -7.43994910     -12.86240134      -2.20005212
H       -6.89841108     -11.25035404      -3.94017327
C       -1.79126714       1.79126714       1.79126714
C       -1.30109126       2.26878448       3.00393814
C       -2.11435043       3.06728991       3.81276158
C       -3.41952425       3.39147005       3.41310075
C       -3.89921881       2.90910531       2.18741675
C       -3.08398754       2.10929439       1.37855961
C       -4.25489230       4.22677406       4.32978010
O       -3.81569890       4.53294548       5.43817599
C       -5.64753295       4.64264929       3.86481761
O       -6.30034151       5.50671322       4.79763915
C       -5.87228107       6.79800251       4.76428315
O       -5.00275078       7.21634103       4.01258422
C       -6.57848297       7.63446565       5.81736816
H       -6.08145112       7.43330038       6.77221190
C       -8.07617856       7.36693478       5.87861900
C       -8.63271383       8.30333016       4.83225434
O       -9.74980666       8.17173500       4.35532125
N       -7.67855900       9.30306216       4.60251723
C       -6.52391988       9.10816279       5.45301365
C       -7.79554242      10.38982721       3.69604448
C       -8.79779258      10.42396087       2.71659724
C       -8.88805740      11.48348141       1.80499056
C       -7.97678105      12.53040419       1.86872668
Br      -8.09376443      13.95928905       0.63903032
C       -6.97785037      12.52609239       2.83519243
C       -6.88798353      11.46059448       3.73949723
H       -0.29352097       2.02576500       3.33191450
H       -1.72294599       3.43404412       4.76079236
H       -4.90190136       3.13005175       1.83351460
H       -3.46772547       1.73726850       0.43118552
H       -6.26607811       3.74245069       3.79012573
H       -5.60384098       5.11830740       2.87855624
H       -8.48986853       7.65776433       6.85032098
H       -8.36578018       6.33799026       5.65485486
H       -5.59509111       9.38707227       4.94755164
H       -6.65392904       9.73377865       6.34427578
H       -9.52049949       9.61916853       2.61477182
H       -9.67077757      11.47023904       1.05103668
H       -6.26302173      13.34224985       2.89713098
H       -6.09931652      11.50535513       4.48426674
C        1.79126714      -1.79126714       1.79126714
C        2.77177792      -2.59144331       1.21059265
C        3.57017876      -3.40443418       2.01978898
C        3.39197784      -3.42082691       3.41129031
C        2.40517478      -2.60646279       3.98410329
C        1.60608389      -1.79307864       3.17267901
C        4.25586031      -4.32950859       4.22607756
O        5.03238104      -5.09692377       3.65751556
C        4.11525611      -4.29458711       5.74515664
O        5.05689357      -5.14639859       6.40140174
C        6.31742380      -4.63943054       6.47771239
O        6.65023799      -3.55050078       6.03093725
C        7.26294070      -5.62539303       7.14198306
H        7.54279319      -6.36233802       6.38183219
C        6.66463102      -6.27452662       8.38257470
C        7.00034183      -5.29009830       9.47785820
O        6.43168625      -5.28598006      10.55919659
N        8.06205800      -4.49495431       9.02712608
C        8.47715781      -4.90517395       7.70276456
C        8.69360918      -3.44415677       9.74364816
C        8.12680524      -2.90479423      10.90675122
C        8.73874843      -1.84686840      11.59091254
C        9.93528740      -1.31940931      11.12121522
Br      10.76166163       0.10925538      12.03967755
C       10.52357315      -1.84069622       9.97486582
C        9.90357527      -2.89369097       9.29080900
H        2.92270670      -2.59448651       0.13400727
H        4.33287764      -4.02876471       1.55614012
H        2.22647410      -2.58391231       5.05508130
H        0.84080201      -1.16797900       3.62739848
H        3.12114330      -4.67220985       6.00530140
H        4.20851681      -3.26991357       6.12227425
H        7.16365044      -7.22229559       8.61200781
H        5.58524663      -6.43473254       8.33864613
H        8.78580318      -4.05262803       7.09128381
H        9.32142614      -5.59610231       7.81445503
H        7.18282547      -3.27043727      11.30117710
H        8.26397908      -1.44561230      12.48246192
H       11.46179009      -1.43899234       9.60162014
H       10.40503278      -3.27660931       8.40729630
C       -0.00445707       0.01189536      -1.78238275
H       -0.66409135       0.67374010      -2.43557963
H        0.65740317      -0.63156657      -2.45157240
C       -0.90989263      -0.90692880      -0.91072765
C        0.90977584       0.90977584      -0.90977584
C       -0.00465871       1.77757030       0.00794375
H       -0.66225468       2.44313916      -0.64384735
H        0.64322798       2.43503045       0.67728295
C       -1.78241447       0.00034974      -0.00472694
H       -2.45427497      -0.65498947       0.64260836
H       -2.43311707       0.67328779      -0.65473579
C       -0.91132561       0.90220522       0.91563759
C       -0.01476271      -0.02253852       1.78660255
H       -0.67934791      -0.69751639       2.42135241
H        0.63392994       0.61504881       2.47327442
C        0.01484550      -1.77751727      -0.01636693
H        0.67870853      -2.42144646      -0.68295456
H       -0.62264859      -2.45592969       0.64226336
C        1.78714474       0.01002794       0.00389507
H        2.44202412       0.67113390       0.66197326
H        2.45385902      -0.65136977      -0.64189061
C        0.91606151      -0.90478549       0.90901405
