190
Properties=species:S:1:pos:R:3 pbc="F F F"
C        1.79126714       1.79126714      -1.79126714
C        2.88521360       2.45114539      -1.23745490
C        3.68404085       3.26500496      -2.04535611
C        3.39299006       3.42236008      -3.40874492
C        2.29216530       2.74821152      -3.95536404
C        1.49280279       1.93381684      -3.14522190
C        4.26501968       4.32624606      -4.22018071
O        5.15254698       4.97167166      -3.66260172
C        3.99601623       4.44112819      -5.71785543
O        4.95323057       5.26772480      -6.38373852
C        6.15182849       4.66673274      -6.61600550
O        6.42044390       3.51786834      -6.29336379
C        7.12439898       5.62686620      -7.27905161
H        7.53219802       6.26596162      -6.48880375
C        6.48639795       6.43338626      -8.40194813
C        6.63916106       5.52792127      -9.60121600
O        5.98455034       5.66923896     -10.62307360
N        7.65812542       4.60964770      -9.31636527
C        8.21740465       4.86205796      -8.00563371
C        8.12994812       3.57935081     -10.17211518
C        7.42180643       3.19675913     -11.31978514
C        7.87621389       2.15808182     -12.14223366
C        9.05484378       1.49252767     -11.82854048
C        9.78127078       1.85691540     -10.70094901
C        9.31841370       2.89137828      -9.87828326
H        3.12478055       2.34392276      -0.18249716
H        4.53614455       3.77910317      -1.60253475
H        2.02373361       2.83787533      -5.00385877
H        0.63880833       1.41835984      -3.57901131
H        3.02209935       4.92213928      -5.85441590
H        3.96423016       3.45071217      -6.18576230
H        7.04855285       7.35328015      -8.59612084
H        5.43340967       6.67813010      -8.24708553
H        8.49717946       3.93484361      -7.49769194
H        9.10866621       5.48767470      -8.13564257
H        6.48538996       3.67389870     -11.59515118
H        7.29451700       1.88025271     -13.01728359
H       10.70693494       1.34639027     -10.44907737
H        9.92426362       3.14951943      -9.01515534
C        9.52301674       0.42276859     -12.67117302
C        9.91511159      -0.47315464     -13.37687777
Br      10.54909580      -1.92178672     -14.51794267
C       -1.79126714      -1.79126714      -1.79126714
C       -1.21674071      -2.54759501      -2.80947816
C       -2.02802183      -3.34571703      -3.62066306
C       -3.41545806      -3.39110230      -3.41753470
C       -3.98089924      -2.62931428      -2.38552734
C       -3.16747186      -1.83021635      -1.57415333
C       -4.23848521      -4.24101646      -4.33194479
O       -3.69853984      -4.80433624      -5.28394429
C       -5.73731250      -4.35053200      -4.06715536
O       -6.38561620      -5.25898194      -4.96009575
C       -6.20660359      -6.57299429      -4.65496886
O       -5.55058424      -6.97640638      -3.70468542
C       -6.88360962      -7.46812737      -5.67857979
H       -6.21958239      -7.51951297      -6.54786803
C       -8.28197624      -6.99200066      -6.04775544
C       -9.14980775      -7.62977316      -4.98871742
O      -10.28426701      -7.24679383      -4.74580207
N       -8.43684253      -8.70489083      -4.44240503
C       -7.15058734      -8.84333396      -5.09117503
C       -8.88324507      -9.58060149      -3.41756755
C      -10.01205237      -9.28583833      -2.64045999
C      -10.42836890     -10.13819711      -1.60996336
C       -9.72105876     -11.30540644      -1.34944673
C       -8.60280410     -11.62632004      -2.11001106
C       -8.18690768     -10.76677922      -3.13438833
H       -0.14401782      -2.52309067      -2.98409199
H       -1.56972674      -3.93186415      -4.41619158
H       -5.04883693      -2.62844757      -2.18818322
H       -3.61726862      -1.24022576      -0.77868511
H       -6.18811767      -3.36835358      -4.24218329
H       -5.92985030      -4.64229234      -3.02856199
H       -8.58898075      -7.38652589      -7.02244720
H       -8.41253107      -5.90778085      -6.03831338
H       -6.37454438      -9.16445523      -4.39071541
H       -7.25420676      -9.59182548      -5.88595124
H      -10.58535484      -8.37572311      -2.79336188
H      -11.30109558      -9.87118554      -1.01977217
H       -8.04524906     -12.53912118      -1.91803234
H       -7.31545604     -11.06367736      -3.70980499
C      -10.14561769     -12.18228616      -0.28905450
C      -10.50118579     -12.91667292       0.59902399
Br     -11.07610934     -14.10411421       2.03497180
C       -1.79126714       1.79126714       1.79126714
C       -1.26878679       2.35052869       2.95449840
C       -2.08152672       3.14884962       3.76402559
C       -3.41844239       3.39121841       3.41443426
C       -3.93083830       2.82697148       2.23793108
C       -3.11606805       2.02743914       1.42833435
C       -4.24998555       4.23053324       4.33092767
O       -3.77481864       4.61130742       5.40069431
C       -5.68175692       4.55705199       3.91619094
O       -6.33182469       5.43443666       4.83843255
C       -5.97001953       6.74119941       4.72334779
O       -5.15847511       7.16235730       3.91084363
C       -6.66634262       7.59446986       5.76950430
H       -6.11566443       7.46423080       6.70706816
C       -8.14448315       7.26018831       5.91706088
C       -8.79509329       8.11663801       4.85656704
O       -9.92551580       7.90931918       4.44202792
N       -7.90326534       9.14756157       4.53331148
C       -6.70172150       9.04933528       5.33403954
C       -8.11618692      10.18159116       3.58363603
C       -9.16382698      10.12022731       2.65429640
C       -9.34898951      11.12807827       1.69946159
C       -8.48847449      12.21854318       1.66889426
C       -7.44622729      12.30886327       2.58404463
C       -7.26151018      11.29466995       3.53189511
H       -0.23615561       2.17160840       3.24343647
H       -1.66456332       3.57990966       4.67330948
H       -4.95872290       2.98282097       1.92392384
H       -3.52509186       1.59151238       0.51957525
H       -6.25797309       3.62618865       3.91449280
H       -5.70798381       4.98501106       2.90770976
H       -8.52588578       7.57882729       6.89324078
H       -8.39317634       6.20898600       5.75646296
H       -5.81256562       9.34632084       4.77082855
H       -6.82039662       9.71134826       6.20023860
H       -9.84994408       9.27831443       2.62618133
H      -10.16467443      11.04088910       0.98648976
H       -6.77040548      13.15977715       2.57221995
H       -6.44187855      11.41313065       4.23392919
C       -8.67525138      13.25494545       0.68676152
C       -8.83167702      14.12293236      -0.13577465
Br      -9.08460406      15.52639377      -1.46574608
C        1.79126714      -1.79126714       1.79126714
C        2.70134449      -2.66719098       1.20527841
C        3.49958876      -3.47962535       2.01518781
C        3.39156517      -3.41982464       3.41270526
C        2.47549685      -2.52980790       3.99043611
C        1.67647027      -1.71705370       3.17831757
C        4.25079819      -4.33076469       4.22988358
O        4.95957968      -5.16308389       3.66415680
C        4.18922093      -4.21552734       5.75025159
O        5.12072552      -5.08132522       6.40264315
C        6.40648842      -4.63581152       6.39226678
O        6.76836698      -3.58797085       5.87533819
C        7.33579880      -5.63524114       7.05927684
H        7.54088804      -6.42123164       6.32484372
C        6.77052591      -6.19261565       8.35859079
C        7.20841583      -5.17478403       9.38509847
O        6.69616266      -5.08969266      10.49100759
N        8.28303817      -4.45714592       8.84395430
C        8.61020499      -4.95128256       7.52360878
C        9.00004643      -3.40637309       9.47499459
C        8.51960293      -2.78349912      10.63524864
C        9.21575482      -1.72618255      11.23459200
C       10.41099611      -1.28332185      10.68159397
C       10.91458986      -1.88844522       9.53610011
C       10.21064618      -2.94042948       8.93699958
H        2.79718748      -2.72980728       0.12420572
H        4.20680189      -4.16344939       1.54753118
H        2.35260677      -2.44659493       5.06626602
H        0.96626495      -1.03276222       3.63715231
H        3.19251556      -4.52928736       6.07685162
H        4.35079445      -3.17990164       6.07000855
H        7.23423478      -7.15228857       8.61143049
H        5.68383271      -6.29983690       8.37495569
H        8.92822323      -4.14596608       6.85552570
H        9.42473755      -5.67792353       7.62932239
H        7.58029192      -3.08137269      11.09277522
H        8.80669431      -1.25884023      12.12651876
H       11.85096517      -1.55328543       9.09815197
H       10.64762133      -3.39044408       8.05087298
C       11.12750320      -0.19494877      11.29450637
C       11.72757790       0.71656369      11.80782052
Br      12.69784792       2.19040223      12.63780607
C       -0.00445707       0.01189536      -1.78238275
H       -0.66409135       0.67374010      -2.43557963
H        0.65740317      -0.63156657      -2.45157240
C       -0.90989263      -0.90692880      -0.91072765
C        0.90977584       0.90977584      -0.90977584
C       -0.00465871       1.77757030       0.00794375
H       -0.66225468       2.44313916      -0.64384735
H        0.64322798       2.43503045       0.67728295
C       -1.78241447       0.00034974      -0.00472694
H       -2.45427497      -0.65498947       0.64260836
H       -2.43311707       0.67328779      -0.65473579
C       -0.91132561       0.90220522       0.91563759
C       -0.01476271      -0.02253852       1.78660255
H       -0.67934791      -0.69751639       2.42135241
H        0.63392994       0.61504881       2.47327442
C        0.01484550      -1.77751727      -0.01636693
H        0.67870853      -2.42144646      -0.68295456
H       -0.62264859      -2.45592969       0.64226336
C        1.78714474       0.01002794       0.00389507
H        2.44202412       0.67113390       0.66197326
H        2.45385902      -0.65136977      -0.64189061
C        0.91606151      -0.90478549       0.90901405
