185
Properties=species:S:1:pos:R:3 pbc="F F F"
C        0.00000000       0.00000000       0.00000000
C       11.17660067       4.62616694      -6.92653538
O       10.79801440       4.03064691      -5.68964702
C        9.46811642       4.09572749      -5.37443097
C        8.55696415       5.00280277      -5.90381318
C        7.21889702       4.95280041      -5.50683927
C        6.76463165       4.00471205      -4.57269749
C        7.70136077       3.11057317      -4.01156756
O        7.23346070       2.18561923      -3.10535686
C        8.18916764       1.66104205      -2.18749407
C        9.04111057       3.16489217      -4.42222687
C        5.33483064       4.00749899      -4.23589703
N        4.72848553       3.08308728      -3.42559240
H        5.23121684       2.34093209      -2.95983265
C        3.37515210       3.33742654      -3.33772911
C        2.50317495       2.50484874      -2.50706758
C        2.72289627       1.11866967      -2.41889556
C        1.92253095       0.31041471      -1.60710070
C        0.88133042       0.88133042      -0.88133042
C        0.64370197       2.25099070      -0.95432825
C        1.45874490       3.05982850      -1.75436298
C        3.22062266       4.47246590      -4.12682519
N        4.43265749       4.87010447      -4.65751899
C        2.01803191       5.23359636      -4.42706794
C        0.77006871       4.63221416      -4.62881564
C       -0.34921605       5.41137667      -4.94596781
C       -0.21995084       6.79238241      -5.08438439
Br      -1.72904684       7.84012268      -5.52936208
C        1.01680531       7.40523270      -4.90939548
C        2.12887008       6.62611413      -4.58383651
H       12.22473615       4.37216268      -7.11148401
H       11.10321976       5.71704530      -6.87884819
H       10.58427432       4.22571091      -7.75640450
H        8.84947405       5.76253267      -6.62107141
H        6.51401819       5.66404654      -5.93731157
H        7.63967071       1.10232576      -1.42332783
H        8.73985049       2.46327503      -1.68406584
H        8.86801813       0.96085005      -2.68263035
H        9.78090748       2.47012517      -4.03687484
H        3.51825798       0.64478147      -2.99084338
H        2.11794999      -0.75722928      -1.55279799
H       -0.16791889       2.70341961      -0.38936484
H        1.27102901       4.13076024      -1.77448179
H        0.65646491       3.55377860      -4.55961836
H       -1.31142982       4.92826011      -5.09489561
H        1.13288249       8.47872902      -5.03075927
H        3.09825523       7.10788621      -4.46182428
C       -5.49314261      -5.82724812     -11.40891227
O       -5.03909413      -4.57576395     -10.90345024
C       -4.90232242      -4.49132087      -9.54463159
C       -5.52776023      -5.31790839      -8.61791148
C       -5.29071930      -5.13389358      -7.25392383
C       -4.43305077      -4.12172607      -6.78726435
C       -3.82994183      -3.26276261      -7.73079706
O       -2.98775828      -2.28415847      -7.25252003
C       -2.80259618      -1.14563023      -8.08947734
C       -4.06933318      -3.46059198      -9.09830445
C       -4.22053491      -4.02037136      -5.33732040
N       -3.33784198      -3.15661588      -4.74270734
H       -2.78571841      -2.48682744      -5.25943573
C       -3.34445403      -3.33179153      -3.37406218
C       -2.50418615      -2.50726316      -2.50364194
C       -1.21520200      -2.12727924      -2.91798025
C       -0.40898294      -1.31435216      -2.11671126
C       -0.88133042      -0.88133042      -0.88133042
C       -2.15332412      -1.24631746      -0.44937934
C       -2.96470899      -2.04564464      -1.26258275
C       -4.29201117      -4.33405180      -3.19385078
N       -4.82147250      -4.73272310      -4.40608536
C       -4.75729193      -4.95689215      -1.96451213
C       -3.90844219      -5.23583587      -0.88682045
C       -4.40417288      -5.86536229       0.26140673
C       -5.74569413      -6.23825189       0.32713007
Br      -6.40864694      -7.10334451       1.87155354
C       -6.59935662      -5.98916549      -0.74291138
C       -6.10363558      -5.35263063      -1.88255451
H       -5.41436212      -5.79423008     -12.49979063
H       -6.54459590      -5.99712493     -11.15739241
H       -4.86336378      -6.64987322     -11.05315273
H       -6.20654199      -6.10987884      -8.91665730
H       -5.78050782      -5.79543692      -6.53943155
H       -2.27789433      -0.38625982      -7.50117015
H       -3.76283166      -0.72141715      -8.40294255
H       -2.17318967      -1.38772510      -8.95058376
H       -3.59498100      -2.84040077      -9.85252571
H       -0.81500077      -2.46798279      -3.87089927
H        0.58102799      -1.03076508      -2.46378160
H       -2.52857151      -0.91091660       0.51462255
H       -3.96472420      -2.29549291      -0.91605392
H       -2.85235422      -4.98434450      -0.93316315
H       -3.73188389      -6.07036696       1.09052496
H       -7.64292162      -6.28992280      -0.70952637
H       -6.77173623      -5.17234433      -2.72388517
C      -10.50333937       8.26210771       3.96385591
O       -9.62017797       8.02616295       2.87196741
C       -8.50731435       7.28040814       3.15055239
C       -7.95834907       7.09130715       4.41392387
C       -6.82349078       6.29122066       4.56382526
C       -6.21128496       5.67039096       3.46036527
C       -6.75151134       5.89581758       2.17617258
O       -6.14135264       5.27181038       1.11127377
C       -6.33118428       5.87324160      -0.16672213
C       -7.89524165       6.69532773       2.03766023
C       -5.03862229       4.82349604       3.71610833
N       -4.40120510       4.07483019       2.76112991
H       -4.66792154       4.07726153       1.78679851
C       -3.36257351       3.36268170       3.32505254
C       -2.50523337       2.50298421       2.50687368
C       -3.05326633       1.76352875       1.44366642
C       -2.24784866       0.96175642       0.63044128
C       -0.88133042       0.88133042       0.88133042
C       -0.31676446       1.60288580       1.92937066
C       -1.12378830       2.41882827       2.73031980
C       -3.41245361       3.74628332       4.66117682
N       -4.43798827       4.64694415       4.87534854
C       -2.56542858       3.34117774       5.77208989
C       -2.07633384       2.03753113       5.91723354
C       -1.28974453       1.69470354       7.02368037
C       -1.00795108       2.64855175       8.00031312
Br       0.03998004       2.17870032       9.50171764
C       -1.50379857       3.94332966       7.88430526
C       -2.27994913       4.28413563       6.77473596
H      -11.40531950       8.73698992       3.56607342
H      -10.05917602       8.94995481       4.68998241
H      -10.80294453       7.32262064       4.44082456
H       -8.38061374       7.55116624       5.30129815
H       -6.40970203       6.14424723       5.56142703
H       -5.64047718       5.38919899      -0.86435187
H       -6.08953804       6.94158472      -0.14393141
H       -7.34619685       5.70152123      -0.53621956
H       -8.35695130       6.86162724       1.06932895
H       -4.12151302       1.79414494       1.23822487
H       -2.69640860       0.40528912      -0.18817902
H        0.75038576       1.54482504       2.13042628
H       -0.65625016       2.99404042       3.52598046
H       -2.31415821       1.27119332       5.18451034
H       -0.91466376       0.67891476       7.11814737
H       -1.30431787       4.69067683       8.64737609
H       -2.67831006       5.29488441       6.69477125
C        4.29204513      -7.50007936      10.93717851
O        3.62073891      -6.28757714      10.60999227
C        3.76685860      -5.84939585       9.32202044
C        4.79020322      -6.21761747       8.45575941
C        4.81540586      -5.70707121       7.15605963
C        3.82774478      -4.81736598       6.69693044
C        2.81226103      -4.41887253       7.59236793
O        1.85120719      -3.55374588       7.11948373
C        1.16876280      -2.77235549       8.09658547
C        2.79243785      -4.94279622       8.89299554
C        3.91835233      -4.35390212       5.30597222
N        2.97793409      -3.57142872       4.68780240
H        2.15777826      -3.21587709       5.15832623
C        3.33433458      -3.34112957       3.37484360
C        2.50518726      -2.50689993       2.50300407
C        1.10330420      -2.55382181       2.60333548
C        0.29407761      -1.74276517       1.80320357
C        0.88133042      -0.88133042       0.88133042
C        2.26693076      -0.81909903       0.76299113
C        3.07446149      -1.61975959       1.57871530
C        4.54479604      -4.01650991       3.25860780
N        4.88709924      -4.61966000       4.45352172
C        5.42672176      -4.14309412       2.10888033
C        4.95124058      -4.28048728       0.79937065
C        5.84570007      -4.42987686      -0.26744849
C        7.21812540      -4.46472727      -0.02603671
Br       8.42290465      -4.68361530      -1.46608203
C        7.70832869      -4.35193278       1.27117202
C        6.81375152      -4.19354472       2.33152449
H        3.96996854      -7.79917869      11.93923560
H        5.37649249      -7.35593490      10.96668585
H        4.01842509      -8.30339744      10.24456720
H        5.58473336      -6.89305300       8.75529177
H        5.61841620      -6.01192308       6.48503701
H        0.59075327      -2.01056460       7.56400644
H        1.87402794      -2.25604919       8.75711423
H        0.46236274      -3.38289531       8.66624047
H        2.00696541      -4.68451254       9.59642955
H        0.61880215      -3.23239353       3.30268715
H       -0.78659962      -1.79477249       1.90534582
H        2.73210911      -0.14776702       0.04498943
H        4.15468156      -1.53424819       1.48734128
H        3.88406029      -4.29073130       0.59507027
H        5.45920509      -4.53084222      -1.27832142
H        8.77510760      -4.39409476       1.47316842
H        7.20074686      -4.12005068       3.34716819
