193
Properties=species:S:1:pos:R:3 pbc="F F F"
C        0.00000000       0.00000000       0.00000000
C       11.17660067       4.62616694      -6.92653538
O       10.79801440       4.03064691      -5.68964702
C        9.46811642       4.09572749      -5.37443097
C        8.55696415       5.00280277      -5.90381318
C        7.21889702       4.95280041      -5.50683927
C        6.76463165       4.00471205      -4.57269749
C        7.70136077       3.11057317      -4.01156756
O        7.23346070       2.18561923      -3.10535686
C        8.18916764       1.66104205      -2.18749407
C        9.04111057       3.16489217      -4.42222687
C        5.33483064       4.00749899      -4.23589703
N        4.72848553       3.08308728      -3.42559240
H        5.23121684       2.34093209      -2.95983265
C        3.37515210       3.33742654      -3.33772911
C        2.50317495       2.50484874      -2.50706758
C        2.72289627       1.11866967      -2.41889556
C        1.92253095       0.31041471      -1.60710070
C        0.88133042       0.88133042      -0.88133042
C        0.64370197       2.25099070      -0.95432825
C        1.45874490       3.05982850      -1.75436298
C        3.22062266       4.47246590      -4.12682519
N        4.43265749       4.87010447      -4.65751899
C        2.01803191       5.23359636      -4.42706794
C        0.77006871       4.63221416      -4.62881564
C       -0.34921605       5.41137667      -4.94596781
C       -0.21995084       6.79238241      -5.08438439
C        1.01680531       7.40523270      -4.90939548
C        2.12887008       6.62611413      -4.58383651
H       12.22473615       4.37216268      -7.11148401
H       11.10321976       5.71704530      -6.87884819
H       10.58427432       4.22571091      -7.75640450
H        8.84947405       5.76253267      -6.62107141
H        6.51401819       5.66404654      -5.93731157
H        7.63967071       1.10232576      -1.42332783
H        8.73985049       2.46327503      -1.68406584
H        8.86801813       0.96085005      -2.68263035
H        9.78090748       2.47012517      -4.03687484
H        3.51825798       0.64478147      -2.99084338
H        2.11794999      -0.75722928      -1.55279799
H       -0.16791889       2.70341961      -0.38936484
H        1.27102901       4.13076024      -1.77448179
H        0.65646491       3.55377860      -4.55961836
H       -1.31142982       4.92826011      -5.09489561
H        1.13288249       8.47872902      -5.03075927
H        3.09825523       7.10788621      -4.46182428
C       -1.36957164       7.59054502      -5.42336588
C       -2.33237907       8.25900621      -5.70726288
Br      -3.88915723       9.33985142      -6.16630032
C       -5.96794631      -5.36349477     -11.39786191
O       -5.57175849      -4.12132444     -10.82522539
C       -5.32743737      -4.13187405      -9.47896347
C       -5.80576569      -5.07821897      -8.57959544
C       -5.46917277      -4.98177274      -7.22759119
C       -4.65666333      -3.94012719      -6.74525068
C       -4.20446474      -2.96220046      -7.65683630
O       -3.40373516      -1.95611252      -7.16458911
C       -3.37949164      -0.74418100      -7.91403112
C       -4.54261268      -3.07229378      -9.01332316
C       -4.33070583      -3.93457393      -5.31294690
N       -3.47092627      -3.04821735      -4.71802158
H       -3.01847893      -2.29582253      -5.21768012
C       -3.34794876      -3.32956579      -3.37279320
C       -2.50390002      -2.50728516      -2.50390608
C       -1.28821320      -1.98836826      -2.98388003
C       -0.48293659      -1.17509959      -2.18201017
C       -0.88133042      -0.88133042      -0.88133042
C       -2.07981856      -1.38528573      -0.38391664
C       -2.89229810      -2.18455122      -1.19608706
C       -4.19575348      -4.41944761      -3.20471265
N       -4.79322695      -4.76572059      -4.40133342
C       -4.50526377      -5.17344966      -1.99998277
C       -3.54905144      -5.46274751      -1.01929956
C       -3.89515501      -6.21964118       0.10666775
C       -5.19309918      -6.70876113       0.24504436
C       -6.15111515      -6.45012639      -0.73019194
C       -5.80484117      -5.68694140      -1.84703815
H       -5.98462691      -5.23891895     -12.48483697
H       -6.97785906      -5.64088808     -11.08036610
H       -5.24805538      -6.15508363     -11.16325071
H       -6.44354034      -5.89908607      -8.89045172
H       -5.84359879      -5.73612856      -6.53564894
H       -2.86771270       0.00866663      -7.30627823
H       -4.39297787      -0.37963326      -8.11458023
H       -2.80829010      -0.86419504      -8.83901338
H       -4.18365792      -2.35722253      -9.74702705
H       -0.94477312      -2.21857840      -3.99053130
H        0.44898105      -0.78249971      -2.58000003
H       -2.39711868      -1.15909491       0.63134803
H       -3.83683156      -2.54444143      -0.79499805
H       -2.52353047      -5.11989729      -1.12643411
H       -3.14114381      -6.43104750       0.86046541
H       -7.16144993      -6.83984374      -0.64107711
H       -6.55379741      -5.49878170      -2.61538662
C       -5.54374612      -7.49795092       1.39735777
C       -5.83741292      -8.15889736       2.36242026
Br      -6.31224731      -9.22759187       3.92284468
C      -10.78353814       7.79762510       4.14813975
O       -9.96159137       7.54329485       3.01342210
C       -8.78112482       6.89691476       3.26023531
C       -8.13550541       6.83783348       4.49024121
C       -6.93792296       6.12952294       4.61109080
C       -6.35838313       5.47300950       3.51064857
C       -6.99935980       5.56731450       2.25682719
O       -6.41901251       4.91030492       1.19511936
C       -6.73825500       5.40294964      -0.10350088
C       -8.20495654       6.27527856       2.14799451
C       -5.11260634       4.72838178       3.73723854
N       -4.48862028       3.95717233       2.79137259
H       -4.82022459       3.87065752       1.84109947
C       -3.36512424       3.35995245       3.32523106
C       -2.50495863       2.50311464       2.50701798
C       -3.06855559       1.65285897       1.53904694
C       -2.26393215       0.85050078       0.72561343
C       -0.88133042       0.88133042       0.88133042
C       -0.30100846       1.71379213       1.83422033
C       -1.10909261       2.52924864       2.63459512
C       -3.35210320       3.83544318       4.63236736
N       -4.42354390       4.67771617       4.85902088
C       -2.40452384       3.57053973       5.70363264
C       -1.81320736       2.31705277       5.90083839
C       -0.93059621       2.10969818       6.96783404
C       -0.65337904       3.14894502       7.85449189
C       -1.24879527       4.39526845       7.68736977
C       -2.12108396       4.60109181       6.61664496
H      -11.74254478       8.18009759       3.78574047
H      -10.34238765       8.56497442       4.79175118
H      -10.98101007       6.87717431       4.70820534
H       -8.52898283       7.33133145       5.37276385
H       -6.44788593       6.08387129       5.58361908
H       -6.06304674       4.91737992      -0.81510235
H       -6.57395638       6.48403524      -0.17080027
H       -7.76079310       5.13641893      -0.38571351
H       -8.74209890       6.33904157       1.20676702
H       -4.14766070       1.59598580       1.41023633
H       -2.72528053       0.20685593      -0.01861776
H        0.77870427       1.74296339       1.96060644
H       -0.63177927       3.19116193       3.35332983
H       -2.04377975       1.48510574       5.24097638
H       -0.47709786       1.13123085       7.10339718
H       -1.05293881       5.20792732       8.38150465
H       -2.59639777       5.57402106       6.49754690
C        0.24451997       2.93007057       8.95878865
C        0.99651039       2.74676322       9.88363719
Br       2.21241530       2.45037074      11.37903906
C        3.91891826      -8.39982968      10.41055505
O        3.12619939      -7.24700936      10.14509957
C        3.36843579      -6.61265333       8.95718576
C        4.53499213      -6.72026506       8.20832291
C        4.64957997      -6.02840524       7.00055150
C        3.60955242      -5.21317196       6.51931683
C        2.44267102      -5.07907054       7.30175993
O        1.43403665      -4.28262777       6.80777237
C        0.52849186      -3.74259517       7.76661673
C        2.33517716      -5.78351728       8.50953517
C        3.80661343      -4.54612191       5.22549132
N        2.84844357      -3.80723697       4.58148466
H        1.93294025      -3.62937587       4.96966546
C        3.33021810      -3.34685062       3.37323903
C        2.50570917      -2.50655313       2.50282896
C        1.12391382      -2.74348564       2.39306204
C        0.31327872      -1.93377552       1.59299211
C        0.88133042      -0.88133042       0.88133042
C        2.24720059      -0.62882140       0.97299894
C        3.05270876      -1.43079166       1.78943596
C        4.63038698      -3.84064599       3.34888077
N        4.90305567      -4.56202915       4.49519614
C        5.65893332      -3.68797260       2.33179029
C        5.37685510      -3.69364767       0.96059574
C        6.41056257      -3.57374694       0.02381893
C        7.73224643      -3.47010503       0.45446449
C        8.03387257      -3.48494555       1.81261537
C        6.99956451      -3.59509577       2.74416044
H        3.51988313      -8.87855090      11.30994880
H        4.95878173      -8.12615621      10.61417530
H        3.85345703      -9.12274628       9.59018642
H        5.37461816      -7.32645986       8.53200011
H        5.56616599      -6.12972357       6.41948673
H       -0.08175983      -2.99076202       7.25632212
H        1.06307331      -3.24243549       8.58168255
H       -0.14839550      -4.51294339       8.14695063
H        1.43844753      -5.73037670       9.11908326
H        0.65831816      -3.57140516       2.92415951
H       -0.75274814      -2.13554368       1.53072315
H        2.69722175       0.19225270       0.41989651
H        4.11209622      -1.19775111       1.86642370
H        4.35660704      -3.80849728       0.60475755
H        6.17298905      -3.57557428      -1.03683744
H        9.06158049      -3.42125022       2.15954007
H        7.24099385      -3.62085704       3.80611483
C        8.79516195      -3.35994629      -0.51076898
C        9.68535369      -3.26768835      -1.31915202
Br      11.12471845      -3.11851506      -2.62623901
