198
Properties=species:S:1:pos:R:3 pbc="F F F"
C        3.97674729       2.72518906       2.90113337
C        4.26557424       2.37042722       1.79159656
C        4.68238286       2.02634662       0.42222243
O        3.58351131       1.48302702      -0.30659728
C        3.14164811       2.06927760      -1.46383781
C        1.80107792       1.80107792      -1.80107792
C        1.21178551       2.33566996      -2.95605313
C        1.94867672       3.15394204      -3.81373149
C        1.27973998       3.76750035      -4.97523191
C        1.81326193       4.08145722      -6.16215121
N        3.07367258       3.85638421      -6.62628093
C        3.21673275       4.39090950      -7.89521363
O        4.24414018       4.34221043      -8.55017549
N        2.01776311       4.96575263      -8.24724502
C        1.77069482       5.61680333      -9.51300259
C        1.97092358       7.11628369      -9.45069429
C        3.23069002       7.66420812      -9.15859305
C        3.41606334       9.04903915      -9.12701660
C        2.34527428       9.89604895      -9.40029209
Br       2.59879946      11.76898537      -9.37254909
C        1.08999174       9.37120278      -9.69897966
C        0.90338223       7.98606934      -9.72028465
C        1.08026471       4.79108459      -7.26137736
O       -0.09643932       5.10966000      -7.25387181
C        3.28142250       3.42526631      -3.48094916
C        3.89218920       2.86672017      -2.34251627
O        5.24290680       3.00184558      -2.14120518
C        5.80411568       4.26322445      -2.50087261
H        3.73810574       3.07059282       3.87995955
H        5.46365955       1.26125497       0.45171523
H        5.10897034       2.93494402       0.00469016
H        0.17091163       2.10863282      -3.18041223
H        0.22797810       4.00784208      -4.81604415
H        3.80980591       3.34337323      -6.16676536
H        0.74321183       5.38750234      -9.81840125
H        2.44190055       5.20392753     -10.27521924
H        4.08357642       7.01620130      -8.96214528
H        4.39847314       9.45305690      -8.89670909
H        0.25223418      10.02923490      -9.91791087
H       -0.08428684       7.59312620      -9.95336421
H        3.85937606       4.08090913      -4.12256213
H        6.74804402       4.37376063      -1.95971264
H        5.15468774       5.09735289      -2.21332672
H        6.02700267       4.28973702      -3.57192053
C       -3.96438313      -2.74026915       2.90384929
C       -4.25642329      -2.38371168       1.79573006
C       -4.67699183      -2.03754703       0.42803181
O       -3.58091718      -1.49021905      -0.30199937
C       -3.14031311      -2.07295997      -1.46149044
C       -1.80107792      -1.80107792      -1.80107792
C       -1.21315358      -2.33184168      -2.95851333
C       -1.95013174      -3.14984864      -3.81636986
C       -1.28240472      -3.75938906      -4.98067845
C       -1.81784307      -4.07191496      -6.16711233
N       -3.07976039      -3.84859429      -6.62798304
C       -3.22443556      -4.38065015      -7.89777017
O       -4.25338340      -4.33277254      -8.55037017
N       -2.02498505      -4.95208545      -8.25369025
C       -1.77927129      -5.59981621      -9.52141324
C       -1.97607585      -7.09986571      -9.46195999
C       -3.23399376      -7.65119476      -9.16830267
C       -3.41626173      -9.03649549      -9.13936186
C       -2.34422170      -9.88055031      -9.41684330
Br      -2.59357986     -11.75409539      -9.39265867
C       -1.09075156      -9.35229483      -9.71712779
C       -0.90722551      -7.96671148      -9.73579924
C       -1.08570854      -4.77751975      -7.26949837
O        0.09170452      -5.09352546      -7.26527156
C       -3.28154550      -3.42482832      -3.48126415
C       -3.89103286      -2.87012148      -2.34027130
O       -5.24100563      -3.00865428      -2.13629765
C       -5.80023728      -4.27047150      -2.49750396
H       -3.72283573      -3.08729233       3.88138906
H       -5.45987681      -1.27423977       0.46091728
H       -5.10250300      -2.94616195       0.00944076
H       -0.17327511      -2.10202766      -3.18465392
H       -0.22977150      -3.99776835      -4.82432448
H       -3.81600521      -3.33820979      -6.16572950
H       -0.75296660      -5.36759013      -9.82855868
H       -2.45305287      -5.18674617     -10.28124828
H       -4.08786478      -7.00549495      -8.96856327
H       -4.39727546      -9.44317391      -8.90778976
H       -0.25203673     -10.00800383      -9.93933939
H        0.07906565      -7.57109000      -9.97017922
H       -3.85946862      -4.08033124      -4.12304746
H       -6.74273017      -4.38426652      -1.95452061
H       -5.14835274      -5.10379967      -2.21321495
H       -6.02541763      -4.29512612      -3.56811646
C        2.51973757       1.52716657       4.79337398
C        1.77810593       2.32805109       4.29445974
C        0.84139679       3.34303734       3.78486650
O        0.12327098       2.83330890       2.66309768
C       -1.24500043       2.75667925       2.67308384
C       -1.80107792       1.80107792       1.80107792
C       -3.18723320       1.60949801       1.70677737
C       -4.06236536       2.37294505       2.48103983
C       -5.50838099       2.09279762       2.42129363
C       -6.52145366       2.95283330       2.58258339
N       -6.48467652       4.30118530       2.77047590
C       -7.76704223       4.79351546       2.94229819
O       -8.03268351       5.96773182       3.13611077
N       -8.63952123       3.73355312       2.85768641
C      -10.07462333       3.85266674       2.97321067
C      -10.57455426       3.58606779       4.37727951
C      -10.19389950       4.41215234       5.44743934
C      -10.67808678       4.17689069       6.73714161
C      -11.55713804       3.12106622       6.96341106
Br     -12.22423106       2.81141655       8.70468631
C      -11.95166719       2.29516701       5.91333997
C      -11.45875763       2.52526007       4.62571852
C       -7.97007017       2.56497219       2.59768430
O       -8.41918449       1.44923481       2.39867320
C       -3.51360758       3.32268124       3.35134915
C       -2.12616247       3.54632052       3.42894266
O       -1.63150118       4.60290372       4.15155266
C       -2.30193476       4.88811861       5.37815936
H        3.16529115       0.82571016       5.26831999
H        1.39467591       4.22323856       3.44463664
H        0.22671418       3.63235541       4.63358297
H       -3.57871691       0.85749695       1.02374282
H       -5.75901054       1.04584054       2.24701325
H       -5.67203975       4.89738197       2.75052279
H      -10.53202528       3.14590019       2.27118993
H      -10.38428785       4.86132634       2.67543313
H       -9.52303435       5.25436303       5.28452562
H      -10.36958552       4.82652695       7.55212665
H      -12.64198880       1.47248987       6.08490128
H      -11.77563249       1.86910307       3.81746801
H       -4.17856791       3.90498643       3.97929298
H       -1.61415694       5.45920388       6.00815647
H       -2.57074000       3.97466318       5.91996417
H       -3.18335517       5.51028016       5.19502487
C       -2.16399769      -0.83933714       5.12546354
C       -1.54921328      -1.75032569       4.64329250
C       -0.76121034      -2.89359672       4.15412067
O       -0.11388447      -2.55876699       2.92825308
C        1.25013603      -2.61600179       2.80862570
C        1.80107792      -1.80107792       1.80107792
C        3.18285615      -1.75542818       1.56522426
C        4.05806349      -2.52885498       2.32943178
C        5.51045843      -2.39820296       2.11381085
C        6.45371053      -3.33554610       2.26761373
N        6.31542944      -4.65165147       2.58925681
C        7.55942290      -5.24998011       2.69345287
O        7.73700282      -6.42259167       2.97693161
N        8.51044146      -4.29240372       2.42791558
C        9.93358981      -4.54079350       2.42611742
C       10.59047460      -4.20032540       3.74710156
C       10.24437608      -4.88639383       4.92272127
C       10.87165452      -4.58564271       6.13482186
C       11.85928222      -3.60508870       6.17724440
Br      12.71873790      -3.20825935       7.81333667
C       12.22108482      -2.91877213       5.02031723
C       11.58582581      -3.21335996       3.81055045
C        7.92562325      -3.09171036       2.11539306
O        8.45077318      -2.04756600       1.76875331
C        3.51473355      -3.33883398       3.33407044
C        2.12718080      -3.41762391       3.55662093
O        1.61346896      -4.35198013       4.42050846
C        2.37275506      -4.59099412       5.60446355
H       -2.69476633      -0.03845236       5.58505298
H       -1.42144384      -3.74216129       3.95248185
H       -0.09457975      -3.16491316       4.96889079
H        3.57101682      -1.10932912       0.77961074
H        5.83516336      -1.40057727       1.81612370
H        5.45483561      -5.16473953       2.70036936
H       10.38119327      -3.94768272       1.62023942
H       10.12139669      -5.59745963       2.20219100
H        9.48835656      -5.66996806       4.90359837
H       10.58780322      -5.12664427       7.03379164
H       12.99549473      -2.15569466       5.04819057
H       11.87921831      -2.66611513       2.91687013
H        4.18343739      -3.92516884       3.95424109
H        1.70184851      -5.03346762       6.34620116
H        2.77374082      -3.66361684       6.02800970
H        3.17297738      -5.31037367       5.40530916
C       -0.00445707       0.01189536      -1.78238275
H       -0.66409135       0.67374010      -2.43557963
H        0.65740317      -0.63156657      -2.45157240
C       -0.90989263      -0.90692880      -0.91072765
C        0.90977584       0.90977584      -0.90977584
C       -0.00465871       1.77757030       0.00794375
H       -0.66225468       2.44313916      -0.64384735
H        0.64322798       2.43503045       0.67728295
C       -1.78241447       0.00034974      -0.00472694
H       -2.45427497      -0.65498947       0.64260836
H       -2.43311707       0.67328779      -0.65473579
C       -0.91132561       0.90220522       0.91563759
C       -0.01476271      -0.02253852       1.78660255
H       -0.67934791      -0.69751639       2.42135241
H        0.63392994       0.61504881       2.47327442
C        0.01484550      -1.77751727      -0.01636693
H        0.67870853      -2.42144646      -0.68295456
H       -0.62264859      -2.45592969       0.64226336
C        1.78714474       0.01002794       0.00389507
H        2.44202412       0.67113390       0.66197326
H        2.45385902      -0.65136977      -0.64189061
C        0.91606151      -0.90478549       0.90901405
