137
Properties=species:S:1:pos:R:3 pbc="F F F"
C        0.00000000       0.00000000       0.00000000
C        0.88178494       0.88178494      -0.88178494
C        0.53333575       1.09751736      -2.21387818
C        1.33852023       1.90503906      -3.02025803
C        2.49261431       2.50590638      -2.49547881
C        2.83718060       2.26582377      -1.15653006
C        2.03187258       1.45978405      -0.34970103
C        3.37905304       3.36473952      -3.36844938
N        4.31571808       2.57023101      -4.12353329
C        4.15278795       2.22097447      -5.44321489
O        3.22302544       2.50439281      -6.18082778
N        5.25199577       1.46578503      -5.81794195
C        6.09260025       1.29699137      -4.75416619
C        7.20139956       0.55216349      -4.78325090
C        8.04079266       0.28290301      -3.61608902
C        7.72897262      -0.79406165      -2.77705035
C        8.51816201      -1.06713146      -1.65820842
C        9.61971366      -0.26162286      -1.37967412
Br      10.68941560      -0.63008366       0.13604079
C        9.93903084       0.81395517      -2.20736995
C        9.14854271       1.08684019      -3.32770188
C        5.48860280       2.07037712      -3.61413581
O        5.95994248       2.23604240      -2.50488512
H       -0.35953630       0.64131621      -2.63392166
H        1.06338734       2.06119021      -4.06234946
H        3.74395961       2.69881869      -0.73581494
H        2.31395193       1.28732297       0.68536861
H        3.93996980       4.07231344      -2.74528860
H        2.75837284       3.95581716      -4.05287418
H        5.35374078       1.06696485      -6.73778577
H        7.51014733       0.04753269      -5.69464057
H        6.86606982      -1.42294079      -2.98206637
H        8.26197318      -1.90226852      -1.01206313
H       10.79361508       1.44745355      -1.98688563
H        9.39923564       1.93369025      -3.96206363
C       -0.88178494      -0.88178494      -0.88178494
C       -0.53082127      -2.21259741      -1.10131261
C       -1.33765592      -3.01981779      -1.90634361
C       -2.50313182      -2.50083601      -2.49003166
C       -2.83360345      -1.15470800      -2.27122298
C       -2.02810906      -0.34778404      -1.46546456
C       -3.36989253      -3.36378338      -3.37856602
N       -2.88160083      -3.39305172      -4.73482981
C       -2.13272988      -4.41427868      -5.26996877
O       -1.75804907      -5.43462783      -4.71556913
N       -1.85816930      -4.08926345      -6.58829000
C       -2.38583387      -2.86608870      -6.89183523
C       -2.22381786      -2.24787128      -8.06512481
C       -2.69499738      -0.89315624      -8.35163108
C       -1.88208564       0.20111837      -8.03099405
C       -2.31427908       1.50179966      -8.29675954
C       -3.56063156       1.70657824      -8.88371159
Br      -4.14763658       3.46815951      -9.24381408
C       -4.37888506       0.62474435      -9.20621526
C       -3.94554036      -0.67750206      -8.94004236
C       -3.11154636      -2.40335901      -5.65821036
O       -3.77720709      -1.39308764      -5.53057528
H        0.36750803      -2.62986118      -0.65334842
H       -1.05122827      -4.05615612      -2.07954262
H       -3.71836842      -0.72277981      -2.73744501
H       -2.30161631       0.69165188      -1.30594186
H       -4.39693126      -2.97804636      -3.38259423
H       -3.40740202      -4.38346350      -2.97619866
H       -1.29718542      -4.67153987      -7.18976610
H       -1.66495129      -2.71733315      -8.87003615
H       -0.91135370       0.05102616      -7.56486787
H       -1.67635668       2.34238465      -8.03779575
H       -5.35439743       0.78363275      -9.65718959
H       -4.59446221      -1.51470558      -9.18582173
C       -0.88178494       0.88178494       0.88178494
C       -2.24221646       0.60290617       0.99960867
C       -3.04873372       1.40802960       1.80705401
C       -2.49627391       2.49202888       2.50569670
C       -1.12775759       2.76801331       2.36376353
C       -0.32088952       1.96265494       1.55781320
C       -3.36761927       3.37922806       3.36539460
N       -4.01848429       4.40373735       2.58726073
C       -5.32173628       4.34124034       2.15400069
O       -6.12703995       3.44319601       2.33801006
N       -5.58666525       5.50244703       1.44661046
C       -4.46836328       6.28534405       1.39005048
C       -4.38892922       7.43458344       0.71330129
C       -3.16158425       8.21574785       0.56245260
C       -2.27803385       7.91568279      -0.48175531
C       -1.10147683       8.64996169      -0.64219956
C       -0.80980155       9.68483071       0.24313265
Br       0.78404459      10.68005845       0.02727729
C       -1.68153643       9.99175910       1.28706044
C       -2.85964124       9.25628674       1.44715680
C       -3.41361453       5.57023961       2.18926159
O       -2.29133528       5.96330297       2.44623175
H       -2.68415117      -0.23538064       0.46693104
H       -4.11237517       1.18805048       1.88650136
H       -0.68295405       3.62144311       2.87419608
H        0.73713894       2.19091292       1.46213231
H       -2.75744960       3.86005743       4.14006481
H       -4.12090575       2.76840629       3.87775213
H       -6.47335338       5.68232030       1.00281771
H       -5.24896521       7.82627041       0.17708496
H       -2.49351787       7.10409713      -1.17241960
H       -0.42162056       8.40321023      -1.45306300
H       -1.45139250      10.79385448       1.98270728
H       -3.52877805       9.49617895       2.27003252
C        0.88178494      -0.88178494       0.88178494
C        1.97583936      -1.54269274       0.32619919
C        2.78342788      -2.34795401       1.13243543
C        2.50384987      -2.49025099       2.49989863
C        1.38950270      -1.83012306       3.03990867
C        0.58273175      -1.02397472       2.23465119
C        3.36229681      -3.37624591       3.37369920
N        2.95424101      -4.75701772       3.29822364
C        3.57700521      -5.71112202       2.52885009
O        4.54354881      -5.56639877       1.79829844
N        2.90751241      -6.90881138       2.71939895
C        1.85006395      -6.72818455       3.56550931
C        0.97068089      -7.68235469       3.88377837
C       -0.22191551      -7.46066134       4.70103886
C       -1.40492233      -7.02697894       4.08990472
C       -2.55367389      -6.80984550       4.85306735
C       -2.51766354      -7.02709908       6.22832937
Br      -4.07303982      -6.73281217       7.26351880
C       -1.34515244      -7.45781058       6.84769783
C       -0.19517939      -7.67526137       6.08300279
C        1.89447292      -5.28645582       3.99218699
O        1.16922435      -4.73396812       4.79767753
H        2.20700263      -1.43973154      -0.73103259
H        3.63116478      -2.86758307       0.68817916
H        1.13679929      -1.94890588       4.09288807
H       -0.27456594      -0.51904815       2.67142409
H        3.29419311      -3.04576335       4.41761539
H        4.41252153      -3.28321197       3.07133068
H        3.15968071      -7.75866445       2.24014624
H        1.07373835      -8.68945042       3.48913182
H       -1.43978387      -6.84671396       3.01826532
H       -3.46349534      -6.46783026       4.36743287
H       -1.31382883      -7.62038287       7.92140023
H        0.71750094      -8.00160565       6.57588292
