130
Properties=species:S:1:pos:R:3 pbc="F F F"
C        1.79146565       1.79146565      -1.79146565
C        2.21845456       3.03204960      -1.32049478
C        3.02411655       3.83971550      -2.12674270
C        3.39892615       3.40113295      -3.40124487
C        4.24800079       4.23442646      -4.27796616
N        4.72078021       5.37916321      -3.89143970
N        5.47989550       6.02808907      -4.82689303
C        6.10054566       7.25832501      -4.64183096
O        6.73066662       7.72653367      -5.59002154
C        5.97851667       7.91018962      -3.36263825
N        5.29558715       7.39487639      -2.29381349
H        4.80445771       6.50552248      -2.28857227
N        5.30458562       8.16170457      -1.18863450
C        6.02987910       9.21941466      -1.56324133
C        6.46611228       9.10923806      -2.89275746
C        2.96782867       2.15601601      -3.87073908
C        2.16204266       1.34971447      -3.06178114
H        1.93070622       3.38034447      -0.33123944
H        3.34575031       4.80532930      -1.74779082
H        4.46266647       3.82974912      -5.28445741
H        5.61086450       5.62668512      -5.75030943
H        6.20487827      10.01582807      -0.85155449
H        3.24997418       1.79996160      -4.85839628
H        1.82866552       0.38187059      -3.42861655
C        7.26659340      10.10394981      -3.55862420
C        7.93699633      10.93702090      -4.11628760
Br       9.02098118      12.28402639      -5.01798215
C       -1.79146565      -1.79146565      -1.79146565
C       -2.22409431      -1.31782785      -3.02907677
C       -3.03153239      -2.12323589      -3.83580647
C       -3.40193616      -3.39982149      -3.39954631
C       -4.25734463      -4.27354764      -4.22950114
N       -4.66066237      -3.91986826      -5.41085249
N       -5.45348307      -4.83938295      -6.04201157
C       -5.99463626      -4.69191346      -7.31415192
O       -6.71142136      -5.59912225      -7.73667822
C       -5.68710124      -3.50044295      -8.06380035
N       -4.87878990      -2.49090882      -7.61457831
H       -4.41410823      -2.47316098      -6.71128327
N       -4.71807989      -1.46598169      -8.47086311
C       -5.45588154      -1.83467364      -9.52197991
C       -6.07112983      -3.07953700      -9.31744097
C       -2.96655875      -3.87133960      -2.15668541
C       -2.15841280      -3.06349763      -1.35162784
H       -1.94106355      -0.32634166      -3.37488492
H       -3.36403683      -1.73914348      -4.79569012
H       -4.53590930      -5.24982229      -3.79114140
H       -5.70980769      -5.70352111      -5.57453025
H       -5.50868437      -1.18077109     -10.38280537
H       -3.24499488      -4.86075089      -1.80258628
H       -1.82060961      -3.43242603      -0.38611701
C       -6.92319530      -3.72101050     -10.28496160
C       -7.63680013      -4.25824456     -11.09526014
Br      -8.79063879      -5.12690659     -12.40544433
C       -1.79146565       1.79146565       1.79146565
C       -2.22338392       1.31816225       3.02945277
C       -3.03082145       2.12356999       3.83618331
C       -3.40193628       3.39982050       3.39954719
C       -4.25736291       4.27353608       4.22949442
N       -4.66004343       3.92017988       5.41115982
N       -5.45298383       4.83962742       6.04226634
C       -5.99354771       4.69246156       7.31469237
O       -6.71053400       5.59954814       7.73713969
C       -5.68520690       3.50143016       8.06470748
N       -4.87666298       2.49204516       7.61556889
H       -4.41234891       2.47411512       6.71208844
N       -4.71517204       1.46754044       8.47221221
C       -5.45269039       1.83636255       9.52348215
C       -6.06854035       3.08088542       9.31868203
C       -2.96727055       3.87100317       2.15631003
C       -2.15912345       3.06316249       1.35125234
H       -1.93979801       0.32693727       3.37555484
H       -3.36276797       1.73973820       4.79636427
H       -4.53651483       5.24951293       3.79084523
H       -5.70986122       5.70346495       5.57453288
H       -5.50486444       1.18279561      10.38460078
H       -3.24626441       4.86015171       1.80191593
H       -1.82187422       3.43183014       0.38544830
C       -6.92047046       3.72240689      10.28629005
C       -7.63396193       4.25968113      11.09666177
Br      -8.78761730       5.12840813      12.40696429
C        1.79146565      -1.79146565       1.79146565
C        2.32560530      -2.97076765       1.27462598
C        3.13136131      -3.77846354       2.08074989
C        3.39892806      -3.40127420       3.40110171
C        4.24530310      -4.23641794       4.27867237
N        4.81372568      -5.32293110       3.85472634
N        5.55500567      -5.98369578       4.79617614
C        6.26401049      -7.15942015       4.57727100
O        6.86434372      -7.64883779       5.53404032
C        6.26230607      -7.73339583       3.25564264
N        5.61365221      -7.19246464       2.17816019
H        5.06726040      -6.33610487       2.19518720
N        5.73932580      -7.88424729       1.03135160
C        6.50741487      -8.91796663       1.38715359
C        6.85406102      -8.86771596       2.74633082
C        2.86049254      -2.21761110       3.91648011
C        2.05486582      -1.41110646       3.10756599
H        2.12159432      -3.27118589       0.24950991
H        3.53718978      -4.69622900       1.66545165
H        4.37182643      -3.88539256       5.31965400
H        5.60341918      -5.63564107       5.74879879
H        6.77645121      -9.65458499       0.64122464
H        3.05851801      -1.90970082       4.94011323
H        1.63793189      -0.49104928       3.51017149
C        7.67527875      -9.85295590       3.40093275
C        8.36304861     -10.67809435       3.94916187
Br       9.47511429     -12.01227344       4.83560198
C       -0.00445707       0.01189536      -1.78238275
H       -0.66409135       0.67374010      -2.43557963
H        0.65740317      -0.63156657      -2.45157240
C       -0.90989263      -0.90692880      -0.91072765
C        0.90977584       0.90977584      -0.90977584
C       -0.00465871       1.77757030       0.00794375
H       -0.66225468       2.44313916      -0.64384735
H        0.64322798       2.43503045       0.67728295
C       -1.78241447       0.00034974      -0.00472694
H       -2.45427497      -0.65498947       0.64260836
H       -2.43311707       0.67328779      -0.65473579
C       -0.91132561       0.90220522       0.91563759
C       -0.01476271      -0.02253852       1.78660255
H       -0.67934791      -0.69751639       2.42135241
H        0.63392994       0.61504881       2.47327442
C        0.01484550      -1.77751727      -0.01636693
H        0.67870853      -2.42144646      -0.68295456
H       -0.62264859      -2.45592969       0.64226336
C        1.78714474       0.01002794       0.00389507
H        2.44202412       0.67113390       0.66197326
H        2.45385902      -0.65136977      -0.64189061
C        0.91606151      -0.90478549       0.90901405
