105
Properties=species:S:1:pos:R:3 pbc="F F F"
C        0.00000000       0.00000000       0.00000000
C        0.87877629       0.87877629      -0.87877629
C        2.12647385       0.43933674      -1.29694297
N        2.96133336       1.17691822      -2.06677453
C        2.51450313       2.40428450      -2.44128924
C        1.26919934       2.91711402      -2.09698298
C        0.44527242       2.13860816      -1.27791348
C        0.80356732       4.26148273      -2.50853047
O        0.07735621       4.90534149      -1.75251236
N        1.14791145       4.77828275      -3.74275113
N        1.81553921       4.07085311      -4.69317416
C        1.97536322       4.66440183      -5.83391906
C        2.70647463       4.02040196      -6.88546485
C        3.34215385       2.79496362      -6.95774279
C        3.92421607       2.71818085      -8.24668743
C        3.60389458       3.89534149      -8.88226665
O        2.86314010       4.69110377      -8.06440424
H        2.50785627      -0.53841835      -1.01707648
H        3.22783739       2.97549771      -3.02743637
H       -0.52366316       2.51827876      -0.96239898
H        0.75854568       5.69230401      -3.95756914
H        1.57523879       5.67379502      -6.03709886
H        3.38367694       2.05682186      -6.16766168
H        4.50757535       1.90428452      -8.65545021
C        3.99714855       4.24848246     -10.22176013
C        4.32649875       4.54423803     -11.34358591
Br       4.85903016       5.02244977     -13.15748333
C       -0.87877629      -0.87877629      -0.87877629
C       -0.43656022      -2.12357422      -1.30261913
N       -1.16276647      -2.94655416      -2.09570548
C       -2.39169899      -2.50135961      -2.46701826
C       -2.93126238      -1.28397502      -2.06805894
C       -2.14143561      -0.44822523      -1.27213323
C       -4.27028836      -0.81276337      -2.49052879
O       -4.45768310       0.39015044      -2.66767740
N       -5.31237168      -1.70568078      -2.65089287
N       -5.22797206      -3.02396245      -2.32763197
C       -6.32283474      -3.70732766      -2.44352171
C       -6.32642676      -5.11474386      -2.17117082
C       -5.32725302      -5.98671979      -1.78088745
C       -5.92159152      -7.26965942      -1.69783341
C       -7.24443156      -7.10147647      -2.03559470
O       -7.49979116      -5.79635896      -2.32249799
H        0.53885953      -2.50739553      -1.01797840
H       -2.92530672      -3.17542103      -3.13004371
H       -2.51702558       0.52497190      -0.96496089
H       -6.20462846      -1.29358555      -2.91020482
H       -7.27603621      -3.24852009      -2.76157636
H       -4.29551600      -5.72163021      -1.59101427
H       -5.43953827      -8.19957503      -1.42819677
C       -8.22741595      -8.15249982      -2.08747538
C       -9.05066537      -9.03273188      -2.13092544
Br     -10.38179007     -10.45599266      -2.20118053
C       -0.87877629       0.87877629       0.87877629
C       -2.06875091       0.39300937       1.40099329
N       -2.90131057       1.12682562       2.17688992
C       -2.51186956       2.40004795       2.44815936
C       -1.32453168       2.96348001       1.99528465
C       -0.50320371       2.18510972       1.17348063
C       -0.92158924       4.35673807       2.29525321
O       -0.28431563       4.99346925       1.45742519
N       -1.22369349       4.92948790       3.51576393
N       -1.78693898       4.24529839       4.54732911
C       -1.91569936       4.89959097       5.65839378
C       -2.54017443       4.28122580       6.79094122
C       -3.09114987       3.02705389       6.97665650
C       -3.58903230       2.99775422       8.30229783
C       -3.30681279       4.23000525       8.84468468
O       -2.66841247       5.01499542       7.93524022
H       -2.40321318      -0.62162050       1.20492172
H       -3.22376818       2.96371299       3.04329030
H        0.41901359       2.60119734       0.77483083
H       -0.88111362       5.87696668       3.65033854
H       -1.56916477       5.94198048       5.77498742
H       -3.13280164       2.23898778       6.23637106
H       -4.09394707       2.17808642       8.79527659
C       -3.64093435       4.64349317      10.18296362
C       -3.92076116       4.98978929      11.30377224
Br      -4.37321744       5.54972084      13.11602497
C        0.87877629      -0.87877629       0.87877629
C        0.57246644      -2.21796831       1.07231882
N        1.30428713      -3.04886867       1.85187032
C        2.39812030      -2.51026674       2.45168983
C        2.80078127      -1.18924873       2.29326635
C        2.00503812      -0.35347533       1.50328061
C        3.99235533      -0.61860734       2.96261785
O        3.97851172       0.55961501       3.31631335
N        5.12455020      -1.38588654       3.15850859
N        5.27478944      -2.64295414       2.66182290
C        6.43388378      -3.19145393       2.84834640
C        6.67698477      -4.53223255       2.40312413
C        5.87316244      -5.45767076       1.76402705
C        6.65373926      -6.62896026       1.60638483
C        7.88432183      -6.34535343       2.15182746
O        7.90835237      -5.07422009       2.63607565
H       -0.29256314      -2.67682225       0.60225529
H        2.93577309      -3.20053633       3.09446205
H        2.27074396       0.69378344       1.38005406
H        5.90707697      -0.90615013       3.59519173
H        7.26195125      -2.66671194       3.35746948
H        4.84632309      -5.30078411       1.46105328
H        6.35043545      -7.56322836       1.15364627
C        8.99532404      -7.25945363       2.21261348
C        9.92578838      -8.02501254       2.26352177
Br      11.43027053      -9.26285655       2.34583617
