109
Properties=species:S:1:pos:R:3 pbc="F F F"
C        0.00000000       0.00000000       0.00000000
C        0.87904036       0.87904036      -0.87904036
C        2.23170194       1.02057172      -0.61221220
N        3.06116700       1.80316727      -1.34312888
C        2.50479015       2.46207702      -2.39426227
C        1.16933276       2.35918623      -2.75911794
C        0.33802222       1.56028231      -1.96429934
C        0.56829071       3.09498041      -3.89607401
O       -0.62410558       3.39848184      -3.84935254
N        1.30457609       3.41865413      -5.01965269
N        2.57142233       2.99025337      -5.24856898
C        3.16209179       3.24216787      -6.38459610
C        2.54199362       4.00693827      -7.53865832
C        4.51888773       2.72225793      -6.53952827
C        5.40293319       2.35144646      -5.53761583
C        6.64836003       1.87481890      -6.04604007
C        6.65312579       1.87891384      -7.41608462
Br       8.10518472       1.30151875      -8.44832221
S        5.21206959       2.45676594      -8.08845531
H        2.70433634       0.50552534       0.21971645
H        3.19662767       3.10961968      -2.92289129
H       -0.72078229       1.47735239      -2.19620479
H        0.75929207       3.85998746      -5.75085778
H        1.70398014       4.63450308      -7.23424123
H        2.19450198       3.29912554      -8.29765113
H        3.28349689       4.67720872      -7.98523625
H        5.16968621       2.42613939      -4.48139970
H        7.47649778       1.54492235      -5.43089280
C       -0.87904036      -0.87904036      -0.87904036
C       -2.10989587      -1.32780047      -0.42678952
N       -2.92753605      -2.12818613      -1.15174097
C       -2.48990714      -2.48169722      -2.38952508
C       -1.28875044      -2.05756100      -2.94132548
C       -0.45934307      -1.25156168      -2.15169912
C       -0.81232908      -2.46239348      -4.28462257
O        0.39901535      -2.52698888      -4.49575529
N       -1.69324599      -2.73628854      -5.31334838
N       -3.03318496      -2.53579848      -5.24126125
C       -3.78766904      -2.70944479      -6.29174193
C       -3.29145934      -3.13568509      -7.66044578
C       -5.21490908      -2.45053092      -6.11523394
C       -5.93152250      -2.43225088      -4.92822211
C       -7.31409945      -2.13494345      -5.12017610
C       -7.58959389      -1.91450683      -6.44402354
Br      -9.29223246      -1.47463508      -7.08815814
S       -6.23539008      -2.07663565      -7.44526510
H       -2.48639546      -1.06064617       0.55689639
H       -3.15667973      -3.15757809      -2.91488082
H        0.50413070      -0.92341651      -2.53348907
H       -1.23870702      -2.93438315      -6.19704714
H       -2.31816155      -3.62603843      -7.62852447
H       -3.22255300      -2.25804048      -8.31068517
H       -3.98622008      -3.85686676      -8.10285503
H       -5.48450251      -2.63191183      -3.96081095
H       -8.04662454      -2.08150296      -4.32418543
C       -0.87904036       0.87904036       0.87904036
C       -1.69443420       0.31978253       1.85026912
N       -2.51371682       1.04515702       2.64858930
C       -2.50163770       2.39254643       2.46694532
C       -1.69753275       3.04661212       1.54349206
C       -0.88262120       2.26071932       0.71926335
C       -1.70418530       4.51433051       1.34082933
O       -1.42810621       4.96635169       0.22927091
N       -1.97974114       5.38713854       2.37600323
N       -2.13114536       5.00893046       3.67016886
C       -2.27631085       5.90247405       4.61007086
C       -2.29351436       7.40341345       4.39066240
C       -2.41389231       5.39379950       5.97298213
C       -2.80278225       4.12237867       6.36683456
C       -2.82128347       3.96299909       7.78493644
C       -2.42174230       5.11298327       8.41339869
Br      -2.29515702       5.28598000      10.27388867
S       -2.04964421       6.36717758       7.34046905
H       -1.72415308      -0.75322077       2.01921293
H       -3.20457450       2.92721667       3.09734747
H       -0.26092300       2.73053755      -0.03868566
H       -1.88478249       6.36345140       2.12190342
H       -2.52738440       7.68241225       3.36292781
H       -1.31648588       7.81975541       4.65503736
H       -3.06246653       7.86493156       5.01854378
H       -3.07128021       3.33925748       5.66668761
H       -3.10459538       3.05130835       8.29640920
C        0.87904036      -0.87904036       0.87904036
C        0.83101108      -0.77333308       2.26014170
N        1.60167634      -1.51101349       3.09477332
C        2.44855133      -2.40073140       2.51184671
C        2.54525615      -2.60084604       1.14153473
C        1.75054823      -1.80181706       0.31023858
C        3.48393610      -3.56068854       0.51472050
O        3.91212333      -3.32755202      -0.61594655
N        3.86328745      -4.72532519       1.15427026
N        3.32693610      -5.16166255       2.32164604
C        3.65368297      -6.32804857       2.80712422
C        4.62526272      -7.29902074       2.16330675
C        3.00750115      -6.71338244       4.05979035
C        2.41364756      -5.88147211       4.99687581
C        1.86800301      -6.59592255       6.10529344
C        2.04695426      -7.94593061       5.95523939
Br       1.44569090      -9.21436101       7.19497377
S        2.86572406      -8.35835446       4.53321232
H        0.16344388      -0.07256135       2.75414001
H        3.07584498      -2.93678487       3.21650879
H        1.81853894      -1.90410773      -0.76987178
H        4.45356195      -5.32590746       0.59066790
H        5.29957327      -6.82064165       1.45250954
H        4.06446159      -8.08255046       1.64426660
H        5.25881249      -7.75801652       2.92911285
H        2.37840934      -4.80247911       4.89633684
H        1.37032956      -6.13328278       6.94870059
