153
Properties=species:S:1:pos:R:3 pbc="F F F"
C        0.00000000       0.00000000       0.00000000
C        0.88186901       0.88186901      -0.88186901
C        0.30867374       1.92229827      -1.60914731
C        1.11374867       2.71298471      -2.43138156
C        2.49131516       2.45991783      -2.53538802
C        3.06257021       1.44147806      -1.76531588
C        2.25379535       0.64160075      -0.95098087
C        3.28479117       3.33581381      -3.43216044
O        2.94208898       4.51088711      -3.56187874
C        4.42888819       2.82886832      -4.22009481
C        4.68090262       1.57916572      -4.62785529
O        3.99946082       0.42479476      -4.38364679
C        5.77654661       1.64797346      -5.61893642
O        6.16798761       0.67817410      -6.24115209
N        6.15397662       2.96483301      -5.71811298
C        6.94353544       3.48564344      -6.81027196
C        5.36401376       3.82573948      -4.85283362
H        4.81216395       4.51873339      -5.50126077
C        6.22677038       4.58577933      -3.85560097
C        5.83876554       5.87284434      -3.44559642
C        6.60639944       6.59748113      -2.52989958
C        7.77272122       6.04106466      -2.01293000
C        8.17283472       4.76378421      -2.39554277
C        7.39978938       4.03727283      -3.30573062
H       -0.75723748       2.12556542      -1.54734388
H        0.66331582       3.52683681      -2.99691183
H        4.13148052       1.24812144      -1.79428829
H        2.70278577      -0.16596269      -0.37829851
H        4.42797952      -0.25354372      -4.94774613
H        7.55649658       2.69104957      -7.24433633
H        7.58670924       4.29333921      -6.45319791
H        6.26393548       3.86568508      -7.57888810
H        4.92246007       6.31970576      -3.83111541
H        6.28237439       7.58986329      -2.22696264
H        9.08278690       4.32472833      -1.99439846
H        7.73320777       3.04124843      -3.59114608
C        8.56905989       6.78953533      -1.07525396
C        9.23599352       7.41637952      -0.28995027
Br      10.31436880       8.42993356       0.97981938
C       -0.88186901      -0.88186901      -0.88186901
C       -1.32467444      -2.11252397      -0.40292090
C       -2.11250628      -2.92621515      -1.21939351
C       -2.45180213      -2.51581132      -2.51900755
C       -2.03923866      -1.25830714      -2.97181834
C       -1.23968916      -0.44854284      -2.15814497
C       -3.28667971      -3.43309612      -3.33298960
O       -4.11330001      -4.14215423      -2.75940059
C       -3.11389200      -3.56858109      -4.79537823
C       -2.03160787      -3.31526450      -5.54105126
O       -0.81948752      -2.80813177      -5.18028308
C       -2.27495728      -3.88407703      -6.88442219
O       -1.43141672      -3.89442215      -7.76147492
N       -3.53854544      -4.42229986      -6.87607731
C       -4.01113227      -5.35741535      -7.87090321
C       -4.18811344      -4.27023482      -5.58423859
H       -4.36399668      -5.27921668      -5.18894474
C       -5.49197179      -3.49154564      -5.68463325
C       -6.54911260      -3.79753726      -4.81055645
C       -7.75887205      -3.10089113      -4.87401696
C       -7.92441079      -2.08808447      -5.81422061
C       -6.88862369      -1.75928152      -6.68425648
C       -5.67651872      -2.45193767      -6.61433645
H       -1.06322763      -2.44929174       0.59684756
H       -2.45896048      -3.88656242      -0.84154156
H       -2.31981839      -0.89670186      -3.95736999
H       -0.90005845       0.51486117      -2.52992432
H       -0.25863109      -2.88204607      -5.98150477
H       -3.46591622      -5.21766183      -8.80830444
H       -5.08029153      -5.21139543      -8.04155940
H       -3.82961563      -6.37280644      -7.50608659
H       -6.43328031      -4.57964999      -4.06035095
H       -8.55963912      -3.35523147      -4.18432973
H       -7.01290386      -0.96887671      -7.42013312
H       -4.88160714      -2.17832302      -7.30567213
C       -9.17311511      -1.37453259      -5.88620147
C      -10.21890497      -0.77693289      -5.94648545
Br     -11.90985873       0.18933528      -6.04395953
C       -0.88186901       0.88186901       0.88186901
C       -2.23366866       1.02710883       0.57934183
C       -3.03259738       1.85120144       1.37431613
C       -2.48044367       2.53867511       2.46750223
C       -1.13220643       2.34897768       2.78818004
C       -0.32916769       1.53290830       1.98430098
C       -3.38637234       3.40144652       3.26494657
O       -4.56662182       3.07068750       3.37754551
C       -2.93423947       4.67201448       3.87159737
C       -1.91820547       5.46318012       3.50653805
O       -0.98617017       5.29474068       2.52699152
C       -2.06591517       6.74087720       4.23666413
O       -1.34225880       7.70025198       4.04480302
N       -3.16730941       6.62115705       5.04845615
C       -3.83520947       7.75010058       5.65414078
C       -3.80808608       5.32328150       4.91121928
H       -4.81678322       5.49986409       4.51551079
C       -3.86730278       4.56900594       6.23184196
C       -4.95186443       3.71375847       6.49158340
C       -5.03645223       3.00458638       7.69274153
C       -4.03461644       3.14317757       8.64892186
C       -2.94497255       3.97623107       8.41095807
C       -2.85806301       4.67895997       7.20576985
H       -2.67465014       0.50968365      -0.26866198
H       -4.08927357       1.96104455       1.13674635
H       -0.68660509       2.83587548       3.65140967
H        0.72430343       1.41450790       2.22491713
H       -0.48802476       6.13902475       2.49513242
H       -3.13514379       8.58116971       5.77556899
H       -4.24056167       7.46493391       6.62775079
H       -4.64741891       8.06765555       4.99343420
H       -5.73963187       3.58403661       5.74961276
H       -5.88439633       2.34729466       7.86750932
H       -2.15981730       4.08761683       9.15447957
H       -1.99767356       5.32533332       7.04259540
C       -4.12418102       2.41920065       9.89046751
C       -4.19919135       1.81286997      10.93026199
Br      -4.32047672       0.83248454      12.61152172
C        0.88186901      -0.88186901       0.88186901
C        0.62253413      -0.97008718       2.24749801
C        1.44363860      -1.75968324       3.05479311
C        2.53063408      -2.45532965       2.50065728
C        2.75330584      -2.39501792       1.12104038
C        1.93792576      -1.59413198       0.31431922
C        3.36428356      -3.27030372       3.41817815
O        2.82519474      -3.79989046       4.38976964
C        4.82529289      -3.41296383       3.23959459
C        5.67964720      -2.59428284       2.61399359
O        5.44206899      -1.44631097       1.91952241
C        7.04896179      -3.02813544       2.96635927
O        8.04506315      -2.41918481       2.62306584
N        6.93118838      -4.13560984       3.77012438
C        8.00842553      -4.64201874       4.58900656
C        5.54185184      -4.49073241       4.01000261
H        5.36113215      -4.38349090       5.08753506
C        5.22097015      -5.90353962       3.54364090
C        4.26043834      -6.65927363       4.23749432
C        3.94020622      -7.95861196       3.83496196
C        4.57836646      -8.51704722       2.73130220
C        5.52591765      -7.78500643       2.02123761
C        5.83949600      -6.48268866       2.42060817
H       -0.20880057      -0.43065576       2.69381662
H        1.23717523      -1.82846025       4.12142898
H        3.56187634      -2.95407568       0.65793823
H        2.13663225      -1.53105992      -0.75257057
H        6.32815919      -1.07873588       1.71528686
H        8.97323872      -4.35966708       4.15897668
H        7.94185066      -5.73008431       4.66131140
H        7.92400662      -4.19876971       5.58573233
H        3.74232862      -6.23401486       5.09693776
H        3.19137078      -8.52064361       4.38718592
H        6.02688542      -8.21660700       1.15842128
H        6.58444516      -5.93017453       1.85098259
C        4.25527577      -9.85867335       2.31990005
C        3.98468732     -10.98228524       1.97535075
Br       3.54716868     -12.79907063       1.41824368
