145
Properties=species:S:1:pos:R:3 pbc="F F F"
C        0.00000000       0.00000000       0.00000000
C        0.88186901       0.88186901      -0.88186901
C        0.30867374       1.92229827      -1.60914731
C        1.11374867       2.71298471      -2.43138156
C        2.49131516       2.45991783      -2.53538802
C        3.06257021       1.44147806      -1.76531588
C        2.25379535       0.64160075      -0.95098087
C        3.28479117       3.33581381      -3.43216044
O        2.94208898       4.51088711      -3.56187874
C        4.42888819       2.82886832      -4.22009481
C        4.68090262       1.57916572      -4.62785529
O        3.99946082       0.42479476      -4.38364679
C        5.77654661       1.64797346      -5.61893642
O        6.16798761       0.67817410      -6.24115209
N        6.15397662       2.96483301      -5.71811298
C        6.94353544       3.48564344      -6.81027196
C        5.36401376       3.82573948      -4.85283362
H        4.81216395       4.51873339      -5.50126077
C        6.22677038       4.58577933      -3.85560097
C        5.83876554       5.87284434      -3.44559642
C        6.60639944       6.59748113      -2.52989958
C        7.77272122       6.04106466      -2.01293000
Br       8.81793311       7.02344876      -0.78220972
C        8.17283472       4.76378421      -2.39554277
C        7.39978938       4.03727283      -3.30573062
H       -0.75723748       2.12556542      -1.54734388
H        0.66331582       3.52683681      -2.99691183
H        4.13148052       1.24812144      -1.79428829
H        2.70278577      -0.16596269      -0.37829851
H        4.42797952      -0.25354372      -4.94774613
H        7.55649658       2.69104957      -7.24433633
H        7.58670924       4.29333921      -6.45319791
H        6.26393548       3.86568508      -7.57888810
H        4.92246007       6.31970576      -3.83111541
H        6.28237439       7.58986329      -2.22696264
H        9.08278690       4.32472833      -1.99439846
H        7.73320777       3.04124843      -3.59114608
C       -0.88186901      -0.88186901      -0.88186901
C       -2.14928694      -0.43861541      -1.25221697
C       -2.96174557      -1.25615402      -2.04021535
C       -2.51291319      -2.52165282      -2.45205499
C       -1.22108340      -2.93640335      -2.11187740
C       -0.41192236      -2.12231393      -1.31214068
C       -3.43091566      -3.33923306      -3.28261671
O       -4.19817566      -2.76307455      -4.05360462
C       -3.49812543      -4.81201031      -3.16771557
C       -3.16761596      -5.59022495      -2.13008271
O       -2.62395973      -5.25839218      -0.92555046
C       -3.69028648      -6.94568669      -2.40748333
O       -3.62784063      -7.85655019      -1.60292297
N       -4.28248815      -6.90827991      -3.64615456
C       -5.19514536      -7.92215487      -4.12215061
C       -4.21226562      -5.58528405      -4.24503718
H       -5.24340983      -5.22701136      -4.36173690
C       -3.48715263      -5.59785185      -5.58314619
C       -3.87447426      -4.69478099      -6.58795104
C       -3.22872102      -4.67792305      -7.82713608
C       -2.18594328      -5.56582303      -8.07494956
Br      -1.31797415      -5.55178392      -9.75383351
C       -1.77694124      -6.46299016      -7.09223029
C       -2.41887784      -6.47332491      -5.85059008
H       -2.51556062       0.53398130      -0.93409249
H       -3.95099018      -0.90612615      -2.32994814
H       -0.83143224      -3.89294312      -2.44951488
H        0.57982717      -2.46586540      -1.02908336
H       -2.64032415      -6.08459968      -0.39725810
H       -4.99326080      -8.87441768      -3.62420400
H       -5.08851639      -8.04191543      -5.20281454
H       -6.21598225      -7.60938380      -3.88314261
H       -4.68125043      -3.98451189      -6.40751892
H       -3.54576968      -3.96729739      -8.58613325
H       -0.96284632      -7.15824793      -7.28081944
H       -2.08277416      -7.18452073      -5.09830740
C       -0.88186901       0.88186901       0.88186901
C       -0.61611002       2.24570633       0.97830297
C       -1.41035144       3.04550935       1.80225415
C       -2.46580963       2.48257781       2.53823356
C       -2.75111158       1.12042840       2.39782416
C       -1.94761458       0.31702143       1.58174096
C       -3.26461266       3.39038004       3.39777272
O       -3.42237086       4.55632143       3.03616254
C       -3.81991729       2.95919639       4.69873763
C       -3.40139918       1.97859261       5.50793185
O       -2.39954952       1.07096692       5.33738593
C       -4.09794424       2.14332357       6.80218869
O       -3.85636310       1.45484179       7.77610890
N       -4.94572539       3.21638084       6.67481638
C       -5.53797346       3.90000007       7.80147731
C       -4.86590617       3.82148207       5.35519862
H       -4.49578782       4.84619144       5.49017884
C       -6.20922030       3.81926283       4.63966754
C       -6.52645457       4.86948387       3.76126786
C       -7.74985461       4.89746890       3.08645664
C       -8.67093386       3.87271495       3.28306706
Br     -10.33040136       3.91383528       2.37935495
C       -8.37595426       2.81610983       4.14009761
C       -7.14864625       2.78572880       4.80841778
H        0.20270987       2.69551531       0.42286638
H       -1.20163154       4.11151589       1.87391705
H       -3.58589790       0.66463782       2.92335452
H       -2.15972519      -0.74612997       1.50152638
H       -2.32799525       0.59964534       6.19454134
H       -5.61387079       3.22205249       8.65595921
H       -6.53128835       4.26790706       7.53405096
H       -4.89304243       4.74039960       8.07506663
H       -5.81268305       5.67435744       3.58624075
H       -7.96926444       5.71973544       2.41020044
H       -9.09189058       2.01324800       4.29677511
H       -6.94076386       1.95035950       5.47447893
C        0.88186901      -0.88186901       0.88186901
C        2.02252377      -0.34424663       1.47334891
C        2.83862588      -1.15834231       2.26114675
C        2.52144307      -2.51315223       2.45202571
C        1.34924056      -3.02983249       1.89029110
C        0.53826789      -2.21711956       1.09098951
C        3.43619325      -3.32041870       3.29615348
O        4.01860140      -2.76736273       4.22889071
C        3.71827156      -4.74456278       3.01501697
C        3.62512142      -5.40707069       1.85573151
O        3.19014206      -4.98096151       0.63679880
C        4.29164635      -6.71486158       2.03694857
O        4.45218689      -7.50749246       1.12763444
N        4.71955959      -6.77677916       3.34058386
C        5.69870528      -7.72901425       3.81173130
C        4.39678419      -5.56669383       4.07910884
H        5.34735461      -5.10626527       4.37853821
C        3.52441726      -5.85006269       5.29367072
C        3.66024003      -5.05344912       6.44351715
C        2.87377444      -5.28474966       7.57525605
C        1.94055995      -6.31733506       7.56882087
Br       0.88304133      -6.63852725       9.10202300
C        1.77995082      -7.11378709       6.43842378
C        2.56206426      -6.87619576       5.30453281
H        2.28745326       0.69977887       1.32799742
H        3.72829152      -0.73481785       2.72395510
H        1.05677236      -4.06356527       2.05355261
H       -0.35555357      -2.63549456       0.63518061
H        3.38327148      -5.71878904       0.02012141
H        5.69090354      -8.62123038       3.17974857
H        5.48014442      -8.00794029       4.84516165
H        6.68823171      -7.26573784       3.75453911
H        4.37768789      -4.23318250       6.46241085
H        2.99652875      -4.65206886       8.45060271
H        1.05226426      -7.92129600       6.42835343
H        2.41984488      -7.51265392       4.43310348
