174
Properties=species:S:1:pos:R:3 pbc="F F F"
C        1.79177303       1.79177303      -1.79177303
C        1.21857777       2.83220229      -2.51905133
C        2.02365270       3.62288873      -3.34128558
C        3.40121919       3.36982185      -3.44529204
C        3.97247424       2.35138208      -2.67521990
C        3.16369937       1.55150478      -1.86088489
C        4.19469519       4.24571784      -4.34206447
O        3.85199301       5.42079114      -4.47178276
C        5.33879221       3.73877235      -5.12999883
C        5.59080665       2.48906975      -5.53775931
O        4.90936485       1.33469879      -5.29355081
C        6.68645064       2.55787748      -6.52884045
O        7.07789163       1.58807812      -7.15105612
N        7.06388065       3.87473704      -6.62801700
C        7.85343946       4.39554746      -7.72017598
C        6.27391779       4.73564350      -5.76273764
H        5.72206797       5.42863741      -6.41116479
C        7.13667441       5.49568335      -4.76550499
C        6.74866956       6.78274836      -4.35550045
C        7.51630347       7.50738515      -3.43980360
C        8.68262524       6.95096868      -2.92283403
C        9.08273875       5.67368823      -3.30544679
C        8.30969341       4.94717685      -4.21563465
H        0.15266654       3.03546945      -2.45724790
H        1.57321985       4.43674084      -3.90681586
H        5.04138455       2.15802546      -2.70419231
H        3.61268979       0.74394134      -1.28820254
H        5.33788355       0.65636030      -5.85765016
H        8.46640061       3.60095360      -8.15424035
H        8.49661327       5.20324323      -7.36310194
H        7.17383951       4.77558910      -8.48879213
H        5.83236409       7.22960978      -4.74101943
H        7.19227841       8.49976731      -3.13686666
H        9.99269092       5.23463235      -2.90430249
H        8.64311179       3.95115245      -4.50105011
C        9.47896391       7.69943936      -1.98515798
C       10.14589755       8.32628355      -1.19985429
Br      11.22427283       9.33983758       0.06991536
C       -1.79177303      -1.79177303      -1.79177303
C       -3.03983367      -1.32859852      -2.20139920
C       -3.85296508      -2.14556670      -2.98929524
C       -3.42440061      -3.43013965      -3.36179282
C       -2.15059498      -3.86608017      -2.98240107
C       -1.34110576      -3.05221209      -2.18277119
C       -4.34205569      -4.24574318      -4.19467863
O       -5.07804870      -3.67037893      -4.99613927
C       -4.44602153      -5.71355294      -4.04798892
C       -4.15728763      -6.47477028      -2.98557780
O       -3.63353968      -6.12748615      -1.77658861
C       -4.70485208      -7.82410027      -3.24421623
O       -4.68183241      -8.71722561      -2.41796784
N       -5.26777495      -7.80203054      -4.49682920
C       -6.19268697      -8.80571673      -4.97075922
C       -5.15329571      -6.49522543      -5.12377779
H       -6.17293348      -6.11645930      -5.27247739
C       -4.39850218      -6.55529457      -6.44406600
C       -4.74186494      -5.66723605      -7.47781738
C       -4.06795037      -5.69379857      -8.70174327
C       -3.04070974      -6.61063769      -8.90508052
C       -2.67503997      -7.49380002      -7.89303377
C       -3.34504418      -7.46074734      -6.66671339
H       -3.39055568      -0.34082141      -1.91400680
H       -4.82699153      -1.78000784      -3.30977717
H       -1.77569246      -4.83879203      -3.28911783
H       -0.36427395      -3.41150974      -1.86904997
H       -3.68105681      -6.94062485      -1.23021234
H       -6.02430761      -9.75049955      -4.44678740
H       -6.06437971      -8.95291657      -6.04566216
H       -7.21114802      -8.46440564      -4.76266707
H       -5.53582285      -4.93485181      -7.33231865
H       -4.35112008      -4.99397248      -9.48381983
H       -1.87323369      -8.21153620      -8.04685588
H       -3.04269042      -8.16173139      -5.89089255
C       -2.35049473      -6.64463839     -10.16842813
C       -1.77243965      -6.67311398     -11.22648175
Br      -0.83777348      -6.71915661     -12.93726497
C       -1.79177303       1.79177303       1.79177303
C       -1.21232429       2.80274924       2.55475786
C       -2.01810280       3.59306478       3.37665943
C       -3.40290381       3.36886644       3.44456283
C       -3.97896476       2.38076791       2.63934355
C       -3.16986860       1.58100869       1.82521174
C       -4.19689106       4.24244569       4.34314074
O       -3.83139245       5.40635702       4.50681744
C       -5.36933972       3.74416698       5.09405669
C       -5.65794835       2.49177875       5.46790860
O       -4.99677617       1.32800962       5.21282866
C       -6.77385974       2.56340011       6.43590872
O       -7.20049025       1.58919234       7.02734327
N       -7.12432385       3.88592357       6.55638726
C       -7.92662076       4.40020064       7.64234151
C       -6.29629265       4.74766960       5.72833668
H       -5.74405699       5.41360110       6.40421208
C       -7.11940979       5.54873932       4.72971364
C       -6.69400456       6.83545720       4.35745660
C       -7.42466309       7.59720211       3.44162702
C       -8.59101804       7.07872703       2.88668288
C       -9.02769326       5.80266512       3.23151539
C       -8.29154318       5.03904602       4.14191571
H       -0.14107172       2.98326386       2.52104831
H       -1.56270349       4.38390559       3.97016746
H       -5.05225695       2.21094980       2.64039557
H       -3.62352653       0.79657850       1.22472864
H       -5.45273531       0.64723370       5.75192499
H       -8.56656259       3.61024716       8.04478481
H       -8.54363591       5.22985195       7.28947059
H       -7.25630096       4.74780930       8.43411048
H       -5.77699408       7.25296019       4.77303904
H       -7.07211032       8.58846596       3.16833611
H       -9.93782962       5.39316493       2.80063121
H       -8.65317013       4.04473939       4.39740484
C       -9.34934682       7.86542490       1.94878953
C       -9.98444717       8.52428437       1.16330385
Br     -11.01135072       9.58960440      -0.10676006
C        1.79177303      -1.79177303       1.79177303
C        2.84101176      -1.22077736       2.50804227
C        3.65900877      -2.03267134       3.29614690
C        3.43573091      -3.41767571       3.36292646
C        2.35133054      -3.97246137       2.67528430
C        1.53937576      -3.16067093       1.87604234
C        4.34719629      -4.22003288       4.21524833
O        4.81542613      -3.70084222       5.22829856
C        4.75940123      -5.59362831       3.85453385
C        4.80262102      -6.16846656       2.64654812
O        4.42516419      -5.68100886       1.43144139
C        5.55446713      -7.43465525       2.78404619
O        5.84198537      -8.14003005       1.83501045
N        5.89028157      -7.56713264       4.10922048
C        6.90414802      -8.47980033       4.58521455
C        5.42119276      -6.44508941       4.90601676
H        6.30863741      -5.94179110       5.31144167
C        4.48791178      -6.88504858       6.02490239
C        4.47731977      -6.17303776       7.23656084
C        3.63138302      -6.54852242       8.28358677
C        2.78469356      -7.64236728       8.12936711
C        2.76921799      -8.35753501       6.93512077
C        3.61049152      -7.97594263       5.88607076
H        3.03333437      -0.15213344       2.45991608
H        4.47693800      -1.58325649       3.85658205
H        2.12952312      -5.03426793       2.73981126
H        0.71640437      -3.60581422       1.32261508
H        4.71958710      -6.35241185       0.77989506
H        7.01196644      -9.31808063       3.89154749
H        6.63372892      -8.85378462       5.57544490
H        7.85595550      -7.94296195       4.63930329
H        5.12517085      -5.30691647       7.37090600
H        3.64051364      -5.97899384       9.20940490
H        2.10954944      -9.21240343       6.80967290
H        3.58201817      -8.55094436       4.96235182
C        1.91802754      -8.03542994       9.21010377
C        1.19219474      -8.36461991      10.11522073
Br       0.01858449      -8.89689226      11.57871830
C       -0.00445707       0.01189536      -1.78238275
H       -0.66409135       0.67374010      -2.43557963
H        0.65740317      -0.63156657      -2.45157240
C       -0.90989263      -0.90692880      -0.91072765
C        0.90977584       0.90977584      -0.90977584
C       -0.00465871       1.77757030       0.00794375
H       -0.66225468       2.44313916      -0.64384735
H        0.64322798       2.43503045       0.67728295
C       -1.78241447       0.00034974      -0.00472694
H       -2.45427497      -0.65498947       0.64260836
H       -2.43311707       0.67328779      -0.65473579
C       -0.91132561       0.90220522       0.91563759
C       -0.01476271      -0.02253852       1.78660255
H       -0.67934791      -0.69751639       2.42135241
H        0.63392994       0.61504881       2.47327442
C        0.01484550      -1.77751727      -0.01636693
H        0.67870853      -2.42144646      -0.68295456
H       -0.62264859      -2.45592969       0.64226336
C        1.78714474       0.01002794       0.00389507
H        2.44202412       0.67113390       0.66197326
H        2.45385902      -0.65136977      -0.64189061
C        0.91606151      -0.90478549       0.90901405
