170
Properties=species:S:1:pos:R:3 pbc="F F F"
C        1.79117992       1.79117992      -1.79117992
C        1.55855273       3.15993744      -1.85307242
C        2.35458479       3.95877468      -2.67746898
C        3.38830798       3.39382195      -3.44364215
I        4.39705419       4.72224319      -4.71862038
C        3.63570197       2.01396644      -3.36700750
C        2.81807685       1.21962253      -2.53728369
C        4.67076293       1.25762204      -4.12987799
O        4.34307320       0.16196122      -4.57278448
N        5.92193688       1.83866416      -4.22978225
C        7.06644705       1.28704509      -4.85343147
C        7.13193974      -0.04414793      -5.29612704
C        8.27463440      -0.57054089      -5.91469659
C        9.33039734       0.31088541      -6.06943949
O       10.53599092       0.05540871      -6.64319442
C       11.19902953       1.25240937      -6.58482880
N       10.53149845       2.21400628      -5.96530241
C        9.32661109       1.62841577      -5.65185349
C        8.18042405       2.13517907      -5.01793779
C       12.56187033       1.27494865      -7.11438830
C       13.48353942       2.14842836      -6.50371880
C       14.81043361       2.20591110      -6.93322269
Br      16.02401764       3.37891862      -6.08312062
C       15.24850584       1.40456344      -7.98157186
C       14.34615707       0.54967992      -8.61279283
C       13.00948990       0.48652490      -8.19132292
Cl      11.97654198      -0.55912839      -9.10702791
H        0.75369416       3.61253212      -1.27856212
H        2.13794109       5.02475727      -2.72627646
H        2.98470170       0.14355201      -2.48865055
H        6.01670993       2.78589510      -3.88378222
H        6.29517504      -0.72494155      -5.16357514
H        8.32662199      -1.59654499      -6.25642473
H        8.17193872       3.16847522      -4.69214613
H       13.15717202       2.78105987      -5.67878935
H       16.28105017       1.44173409      -8.32038134
H       14.68843142      -0.06433260      -9.44376008
C       -1.79117992      -1.79117992      -1.79117992
C       -1.59940494      -3.16758327      -1.80457437
C       -2.39466996      -3.96729857      -2.62885992
C       -3.38681291      -3.39553485      -3.44342432
I       -4.39746761      -4.73192310      -4.70852704
C       -3.59344022      -2.00714149      -3.41609420
C       -2.77690227      -1.21240014      -2.58568065
C       -4.58107665      -1.24402239      -4.23316393
O       -4.20633741      -0.17300636      -4.69847513
N       -5.84611194      -1.78994611      -4.35432525
C       -6.95364399      -1.22374225      -5.02953737
C       -6.96441257       0.09443199      -5.51393826
C       -8.07106702       0.63553640      -6.18325948
C       -9.14854939      -0.21807747      -6.34409538
O      -10.32780503       0.05564973      -6.96243875
C      -11.02914612      -1.11845249      -6.88866908
N      -10.41075195      -2.08001527      -6.22003992
C       -9.19824917      -1.52152329      -5.88710789
C       -8.08795825      -2.04264509      -5.20293757
C      -12.37546473      -1.11637370      -7.45936885
C      -13.34178084      -1.94232124      -6.85158450
C      -14.65628439      -1.97312906      -7.32015394
Br     -15.93075225      -3.08209958      -6.47320504
C      -15.03749689      -1.19188968      -8.40525458
C      -14.09044155      -0.38457723      -9.03361104
C      -12.76575610      -0.34864617      -8.57293543
Cl     -11.67373401       0.63649189      -9.48719938
H       -0.82665233      -3.62615321      -1.19198287
H       -2.20985675      -5.04032276      -2.63879531
H       -2.91142498      -0.13080910      -2.57467019
H       -5.98062576      -2.72269380      -3.98306769
H       -6.11128466       0.75350661      -5.37603058
H       -8.08085932       1.65153557      -6.55717798
H       -8.12137402      -3.06511432      -4.84607174
H      -13.06020237      -2.55857552      -5.99824334
H      -16.06002647      -1.20845221      -8.77468693
H      -14.38830835       0.21336702      -9.89291757
C       -1.79117992       1.79117992       1.79117992
C       -2.85520597       1.22956307       2.48679355
C       -3.67135573       2.04428582       3.27518690
C       -3.42758285       3.42475642       3.37343282
I       -4.82810623       4.51134447       4.49846706
C       -2.34151874       3.98932912       2.68582805
C       -1.53224743       3.15558830       1.88714734
C       -1.96277038       5.43204469       2.66344789
O       -1.59758588       5.89298094       1.58725208
N       -2.01254175       6.10965602       3.86818551
C       -1.64980261       7.45808193       4.09903907
C       -0.99072557       8.24919447       3.14399880
C       -0.64278783       9.58455030       3.39145197
C       -1.00053171      10.07494301       4.63524753
O       -0.79038273      11.32947264       5.11473869
C       -1.36054133      11.31576935       6.35995702
N       -1.85088234      10.13946798       6.72045681
C       -1.64571868       9.34529140       5.61587026
C       -1.97140320       8.00361078       5.35852693
C       -1.26210184      12.54800085       7.14110459
C       -1.16845598      12.42555622       8.54167437
C       -1.04203179      13.55390354       9.35363206
Br      -0.90506208      13.35322944      11.22776535
C       -1.01370021      14.82652790       8.79441304
C       -1.12695436      14.96938551       7.41228995
C       -1.25785394      13.84222069       6.58726308
Cl      -1.46487958      14.16167135       4.89789057
H       -3.06792907       0.16573792       2.41112141
H       -4.51220477       1.58458679       3.79218325
H       -0.70117119       3.58671022       1.32902285
H       -2.41462361       5.61588332       4.65588032
H       -0.71315292       7.84774920       2.17290651
H       -0.13464466      10.19562321       2.65623386
H       -2.48033157       7.42901530       6.12321320
H       -1.18607443      11.43521756       8.99572925
H       -0.91302807      15.71025644       9.41988110
H       -1.12079470      15.96790092       6.97916327
C        1.79117992      -1.79117992       1.79117992
C        2.49633177      -1.22744777       2.84778305
C        3.31788872      -2.03481580       3.63812393
C        3.43812036      -3.41041060       3.37724112
I        4.81196360      -4.44182005       4.58413412
C        2.71136213      -3.98366640       2.32164738
C        1.89332317      -3.15421868       1.52744122
C        2.74648614      -5.41362922       1.89814760
O        2.75103553      -5.63488757       0.69189580
N        2.72362455      -6.36348641       2.90327233
C        2.69571205      -7.76929911       2.74191244
C        2.48706368      -8.39488360       1.50197155
C        2.46610712      -9.78976492       1.36291807
C        2.67458454     -10.50976113       2.52637658
O        2.71316208     -11.86207259       2.65935938
C        2.98601848     -12.06401094       3.98623827
N        3.05673297     -10.95197554       4.70209862
C        2.88130564      -9.95173843       3.77383627
C        2.88169950      -8.55289919       3.89894224
C        3.06076670     -13.45290131       4.43753927
C        2.64772554     -13.73266292       5.75529812
C        2.66188180     -15.03793943       6.24974617
Br       2.08834421     -15.38008766       8.01762501
C        3.09298233     -16.09093967       5.45071915
C        3.52608977     -15.83123186       4.15130819
C        3.51918591     -14.52263111       3.64552069
Cl       4.15191188     -14.32710777       2.04542185
H        2.42705778      -0.16220370       3.05552692
H        3.87770403      -1.56562076       4.44565002
H        1.34361910      -3.58347320       0.68981196
H        2.80515616      -6.02632020       3.85491090
H        2.32094978      -7.81491750       0.59794135
H        2.30531252     -10.27344737       0.40774183
H        3.04686292      -8.11126046       4.87443669
H        2.30414570     -12.91921648       6.39365906
H        3.10469438     -17.11078147       5.82768975
H        3.87827349     -16.65558823       3.53399718
C       -0.00445707       0.01189536      -1.78238275
H       -0.66409135       0.67374010      -2.43557963
H        0.65740317      -0.63156657      -2.45157240
C       -0.90989263      -0.90692880      -0.91072765
C        0.90977584       0.90977584      -0.90977584
C       -0.00465871       1.77757030       0.00794375
H       -0.66225468       2.44313916      -0.64384735
H        0.64322798       2.43503045       0.67728295
C       -1.78241447       0.00034974      -0.00472694
H       -2.45427497      -0.65498947       0.64260836
H       -2.43311707       0.67328779      -0.65473579
C       -0.91132561       0.90220522       0.91563759
C       -0.01476271      -0.02253852       1.78660255
H       -0.67934791      -0.69751639       2.42135241
H        0.63392994       0.61504881       2.47327442
C        0.01484550      -1.77751727      -0.01636693
H        0.67870853      -2.42144646      -0.68295456
H       -0.62264859      -2.45592969       0.64226336
C        1.78714474       0.01002794       0.00389507
H        2.44202412       0.67113390       0.66197326
H        2.45385902      -0.65136977      -0.64189061
C        0.91606151      -0.90478549       0.90901405
