149
Properties=species:S:1:pos:R:3 pbc="F F F"
C        0.00000000       0.00000000       0.00000000
C        0.88127590       0.88127590      -0.88127590
C        0.64864870       2.25003342      -0.94316840
C        1.44468076       3.04887065      -1.76756496
C        2.47840395       2.48391793      -2.53373813
I        3.48715017       3.81233916      -3.80871635
C        2.72579795       1.10406241      -2.45710347
C        1.90817282       0.30971850      -1.62737967
C        3.76085891       0.34771802      -3.21997397
O        3.43316918      -0.74794281      -3.66288046
N        5.01203286       0.92876013      -3.31987823
C        6.15654303       0.37714106      -3.94352744
C        6.22203571      -0.95405196      -4.38622301
C        7.36473038      -1.48044492      -5.00479257
C        8.42049332      -0.59901861      -5.15953547
O        9.62608690      -0.85449531      -5.73329039
C       10.28912550       0.34250534      -5.67492477
N        9.62159442       1.30410226      -5.05539838
C        8.41670706       0.71851174      -4.74194947
C        7.27052003       1.22527505      -4.10803377
C       11.65196630       0.36504462      -6.20448428
C       12.57363539       1.23852434      -5.59381478
C       13.90052958       1.29600707      -6.02331867
Br      15.11411361       2.46901460      -5.17321659
C       14.33860182       0.49465942      -7.07166783
C       13.43625305      -0.36022410      -7.70288880
C       12.09958587      -0.42337913      -7.28141889
Cl      11.06663796      -1.46903242      -8.19712388
H       -0.15620986       2.70262810      -0.36865809
H        1.22803706       4.11485324      -1.81637243
H        2.07479767      -0.76635202      -1.57874653
H        5.10680591       1.87599108      -2.97387820
H        5.38527102      -1.63484557      -4.25367112
H        7.41671797      -2.50644902      -5.34652071
H        7.26203470       2.25857120      -3.78224210
H       12.24726799       1.87115585      -4.76888533
H       15.37114615       0.53183007      -7.41047732
H       13.77852739      -0.97423662      -8.53385606
C       -0.88127590      -0.88127590      -0.88127590
C       -1.51140522      -0.33663084      -1.99381446
C       -2.33369295      -1.14256907      -2.78485436
C       -2.52963977      -2.49771818      -2.46870206
I       -3.89492901      -3.52203851      -3.69123817
C       -1.87834946      -3.05287914      -1.35573524
C       -1.05871268      -2.22456957      -0.56198874
C       -1.99917149      -4.45848050      -0.87089891
O       -2.06792975      -4.62267498       0.34249791
N       -1.97587698      -5.45436522      -1.83042902
C       -2.02095759      -6.85093855      -1.60531539
C       -1.89737290      -7.42655983      -0.33027403
C       -1.94788755      -8.81295692      -0.12823357
C       -2.13762945      -9.57653241      -1.26684832
O       -2.23341362     -10.93050872      -1.34095964
C       -2.45587957     -11.18187575      -2.66880030
N       -2.44248171     -10.10247875      -3.43613460
C       -2.26211392      -9.06876915      -2.54628520
C       -2.19151745      -7.67868869      -2.73362270
C       -2.57525225     -12.58562177      -3.06062119
C       -2.11730180     -12.94485634      -4.34381636
C       -2.17037295     -14.26988695      -4.77959542
Br      -1.53507553     -14.71959080      -6.50167847
C       -2.68548999     -15.26407186      -3.95536722
C       -3.16358289     -14.92481078      -2.69052408
C       -3.11809997     -13.59560881      -2.24391685
Cl      -3.81182391     -13.29742402      -0.68548150
H       -1.38319300       0.71357731      -2.24546064
H       -2.83433415      -0.68710886      -3.63781973
H       -0.56763862      -2.63831380       0.31876023
H       -1.99897190      -5.15875655      -2.79894673
H       -1.74486634      -6.81295883       0.55372861
H       -1.85270380      -9.25814987       0.85406401
H       -2.29211918      -7.27620633      -3.73452249
H       -1.70789819     -12.17830325      -5.00110773
H       -2.72802348     -16.29888160      -4.28654846
H       -3.58114234     -15.70285088      -2.05415361
C       -0.88127590       0.88127590       0.88127590
C       -0.38162350       2.07705741       1.38316960
C       -1.18518598       2.86947700       2.20645339
C       -2.49308535       2.47139541       2.53157924
I       -3.50810373       3.71973967       3.88036228
C       -3.00470858       1.27274446       2.00951079
C       -2.17849690       0.47948241       1.18729169
C       -4.35493008       0.69732528       2.27629553
O       -4.41717856      -0.51559189       2.44652016
N       -5.42259613       1.57647280       2.26160229
C       -6.78992864       1.25393491       2.43334798
C       -7.27042139      -0.06561522       2.44940060
C       -8.62906347      -0.36403925       2.62405382
C       -9.46433026       0.72701286       2.78966705
O      -10.80926188       0.70908630       2.98653380
C      -11.14787108       2.02836946       3.13031509
N      -10.13642367       2.86924061       2.97543079
C       -9.05158184       2.04603337       2.77955306
C       -7.68958619       2.32852189       2.58572077
C      -12.56567830       2.32452095       3.33129596
C      -13.05783745       3.53771151       2.81042554
C      -14.40572067       3.87808809       2.93604656
Br     -15.03551914       5.50695815       2.21386751
C      -15.29120187       3.02657124       3.58715596
C      -14.81887562       1.83175553       4.12828660
C      -13.46543323       1.48151949       4.01067292
Cl     -12.99493207       0.00886490       4.79093245
H        0.63317430       2.39402772       1.15422290
H       -0.76315749       3.79042520       2.60568005
H       -2.55615459      -0.46527521       0.79631281
H       -5.20360630       2.56282745       2.19024142
H       -6.60166188      -0.91158005       2.31401473
H       -9.00095695      -1.38075134       2.63658405
H       -7.36122860       3.36102764       2.58059176
H      -12.37771713       4.21494944       2.29464260
H      -16.34305574       3.28338518       3.68701261
H      -15.51147297       1.17512010       4.65155375
C        0.88127590      -0.88127590       0.88127590
C        2.25346977      -0.92334034       0.66504040
C        3.05266136      -1.74769786       1.46075715
C        2.48460919      -2.53366146       2.47778936
I        3.81631104      -3.80464947       3.48724518
C        1.10095222      -2.47717894       2.70883267
C        0.30645338      -1.64716941       1.89164821
C        0.34148013      -3.26222144       3.72484932
O       -0.74442345      -3.71449590       3.37803438
N        0.90822580      -3.37058203       4.98186340
C        0.35035395      -4.01526469       6.11159289
C       -0.97590520      -4.47515578       6.15495618
C       -1.50859594      -5.11442525       7.28324873
C       -0.63841260      -5.27146104       8.34796173
O       -0.90156650      -5.86336279       9.54308570
C        0.28632835      -5.79851241      10.22171486
N        1.24827394      -5.15885333       9.57396779
C        0.67373778      -4.83761623       8.36581426
C        1.18665310      -4.18320182       7.23397393
C        0.29865213      -6.34475797      11.57808511
C        1.15297290      -5.73492057      12.51808103
C        1.19942731      -6.18024469      13.84018332
Br       2.34662864      -5.33096279      15.07875336
C        0.40590449      -7.24381059      14.25521398
C       -0.42980457      -7.87420821      13.33451410
C       -0.48170917      -7.43686466      12.00247014
Cl      -1.50298686      -8.35242546      10.94529083
H        2.70875131      -0.33326062      -0.12693560
H        4.12176598      -1.78061952       1.25687724
H       -0.77211752      -1.61392104       2.04538867
H        1.84981184      -3.01411936       5.09274398
H       -1.64791467      -4.34056829       5.31144294
H       -2.53080939      -5.46942547       7.31817358
H        2.21581940      -3.84458965       7.24243895
H        1.77922023      -4.89822128      12.20986767
H        0.43455178      -7.59502354      15.28387822
H       -1.03755676      -8.71691333      13.65879026
