189
Properties=species:S:1:pos:R:3 pbc="F F F"
C        0.00000000       0.00000000       0.00000000
C        9.06075898      -4.41133005       4.50392464
C        8.45663488      -3.17408967       3.90736360
C        7.13928182      -2.80365617       4.20052255
C        6.57761041      -1.66566561       3.61614001
C        7.32321555      -0.89371509       2.71921332
C        8.64540394      -1.25274442       2.43212032
C        9.20541666      -2.38933124       3.02209889
C        6.67086639       0.28523813       2.08281010
O        5.71967242       0.83260680       2.63800712
C        7.22345607       0.75885529       0.74155207
O        6.31924494       1.56153397      -0.01603397
C        5.28203513       0.86639708      -0.55010206
O        5.05557987      -0.32117511      -0.39639485
C        4.50495839       1.75728608      -1.44306155
C        5.23056072       2.60135496      -2.28986165
C        4.55052069       3.37511912      -3.21256042
N        3.20176553       3.31805694      -3.31463834
C        2.49947725       2.51121637      -2.50268239
C        1.11864288       2.48617603      -2.65138192
C        0.30236358       1.67952710      -1.85587414
C        0.88111265       0.88111265      -0.88111265
C        2.26363629       0.88229460      -0.70805182
C        3.09676363       1.69155376      -1.52443496
C        5.24074921       4.26286055      -4.17185928
C        4.70407705       4.49032170      -5.45359565
C        5.36001619       5.29722506      -6.38966214
C        6.56802908       5.89875963      -6.05412526
Br       7.46544937       6.97997689      -7.31726171
C        7.11853949       5.70885118      -4.79090185
C        6.45692693       4.90120341      -3.85870217
H        8.41241407      -4.84367686       5.27291088
H       10.02172383      -4.17664687       4.97305368
H        9.21536235      -5.16494638       3.72502826
H        6.53590679      -3.40052196       4.88133065
H        5.54938017      -1.39465189       3.84937641
H        9.26432597      -0.66607284       1.75998527
H       10.23176022      -2.66386579       2.78520616
H        7.54527222      -0.09166565       0.12939435
H        8.10192670       1.38030004       0.94531498
H        6.31485008       2.61216881      -2.25315391
H        0.66189108       3.11419861      -3.41411659
H       -0.77370707       1.68834693      -2.00816506
H        2.69570446       0.25095667       0.06641684
H        3.76058316       4.02351815      -5.73517315
H        4.91807813       5.44351708      -7.37151870
H        8.05726592       6.18375755      -4.51768213
H        6.90482353       4.78987310      -2.87333359
C       -4.36851503      -4.73837383       8.96138456
C       -3.96350383      -4.94274279       7.53106500
C       -2.77697873      -4.39189240       7.03376803
C       -2.42466130      -4.56391106       5.69276757
C       -3.26391239      -5.27638362       4.83000887
C       -4.44570515      -5.84001346       5.32517940
C       -4.79267833      -5.66965819       6.66835000
C       -2.87363916      -5.39657669       3.39692142
O       -1.69112026      -5.29701965       3.07386781
C       -3.98637041      -5.63452559       2.38013671
O       -3.63819568      -5.29688843       1.03827123
C       -3.55054794      -3.96060705       0.81262072
O       -3.69360484      -3.07907287       1.64187810
C       -3.34805497      -3.72181065      -0.63544040
C       -4.11621601      -4.48478299      -1.52077833
C       -4.03657282      -4.22488195      -2.87674546
N       -3.23941415      -3.24048198      -3.35456468
C       -2.49773491      -2.50611427      -2.50952682
C       -1.70040694      -1.50548303      -3.05031085
C       -0.89497815      -0.68860306      -2.25418362
C       -0.88111265      -0.88111265      -0.88111265
C       -1.67101024      -1.87534552      -0.30762694
C       -2.50075748      -2.69838642      -1.11360844
C       -4.84311004      -4.95508793      -3.87727107
C       -5.28263277      -4.31401622      -5.05134540
C       -6.07787610      -4.97569569      -5.99333161
C       -6.44320258      -6.29999563      -5.77771576
Br      -7.52691873      -7.19618570      -7.03958353
C       -6.01277994      -6.96891303      -4.63659954
C       -5.21667820      -6.30161627      -3.69853804
H       -3.56653501      -4.27200218       9.54271086
H       -4.60351016      -5.69918510       9.43067198
H       -5.24832778      -4.08882752       9.01176758
H       -2.11902254      -3.81859264       7.68356100
H       -1.50159363      -4.12353625       5.31977802
H       -5.11139221      -6.42003556       4.69315991
H       -5.71815576      -6.10522664       7.04069413
H       -4.89536568      -5.09011840       2.66127186
H       -4.21795821      -6.70492579       2.38597224
H       -4.79944867      -5.23803541      -1.14268872
H       -1.70761122      -1.35436486      -4.12823021
H       -0.28883217       0.08471521      -2.71868795
H       -1.64076704      -2.01149014       0.77201289
H       -5.00950594      -3.27517380      -5.23459472
H       -6.40364664      -4.44539897      -6.88406829
H       -6.28573466      -8.00706180      -4.46590914
H       -4.88079119      -6.86006386      -2.82717517
C        8.94685808       4.06621927       5.02614311
C        7.50395998       3.68856618       5.19057541
C        6.99343162       2.52548609       4.60304863
C        5.64166250       2.19922839       4.73823890
C        4.78171412       3.04173711       5.45026415
C        5.28973268       4.19985802       6.05041387
C        6.64351872       4.52069016       5.91681508
C        3.33822630       2.68069439       5.53082633
O        2.99198074       1.50802291       5.39822993
C        2.34070982       3.81020388       5.77126523
O        0.99941810       3.49911533       5.39711565
C        0.80148524       3.44535715       4.05466235
O        1.65290026       3.58907936       3.19462051
C       -0.64498678       3.28009041       3.78022884
C       -1.53015423       4.05095064       4.54067246
C       -2.88145650       4.00689764       4.24984610
N       -3.35453332       3.24193345       3.23799405
C       -2.50970620       2.49781425       2.50585555
C       -3.04536307       1.73442165       1.47641610
C       -2.24897858       0.92944559       0.65934066
C       -0.88111265       0.88111265       0.88111265
C       -0.31278894       1.63649462       1.90469914
C       -1.11863371       2.46586202       2.72825662
C       -3.88020425       4.81936673       4.97589807
C       -5.03007001       5.29844982       4.31947456
C       -5.96903729       6.09981822       4.97804789
C       -5.77487148       6.43160301       6.31443947
Br      -7.03251393       7.52330335       7.20687068
C       -4.65836634       5.96174183       6.99818435
C       -3.72321641       5.15972342       6.33389268
H        9.52087989       3.26186134       4.55484488
H        9.39978441       4.26998608       6.00182161
H        9.03056345       4.95853099       4.39742017
H        7.64135938       1.86588143       4.02953214
H        5.25863417       1.29434904       4.26963700
H        4.65958849       4.86665224       6.63120411
H        7.02606012       5.42809621       6.38065218
H        2.65336626       4.72431834       5.25326015
H        2.32791221       4.01843008       6.84639389
H       -1.15411698       4.70923819       5.31681762
H       -4.11927598       1.76868588       1.30224443
H       -2.70928110       0.35054930      -0.13702548
H        0.76267654       1.57948794       2.06343290
H       -5.19619560       5.05193976       3.27113910
H       -6.84060358       6.45655478       4.43595554
H       -4.50478207       6.20837212       8.04555141
H       -2.87185475       4.79269486       6.90348060
C       -6.41708986       2.15605798       8.71865214
C       -5.01944461       1.86314945       8.25777566
C       -4.51527661       2.43261867       7.08299838
C       -3.22265001       2.12951840       6.64797319
C       -2.42505094       1.24047877       7.37581685
C       -2.91988609       0.67775774       8.55818303
C       -4.21187531       0.98680234       8.99266417
C       -1.07009506       0.90856777       6.85195726
O       -0.49336061       1.69553939       6.10317210
C       -0.45708924      -0.42352561       7.27432292
O        0.58982286      -0.88514176       6.42184826
C        0.15920362      -1.32719488       5.21213577
O       -0.99032156      -1.31351004       4.80761112
C        1.29678835      -1.92971545       4.47880222
C        2.15882857      -2.75581900       5.20712975
C        3.17322808      -3.42148477       4.54348739
N        3.33463640      -3.29448289       3.20534153
C        2.51146435      -2.50086404       2.50104761
C        2.71690309      -2.40893855       1.13035919
C        1.91361605      -1.61145995       0.31268883
C        0.88111265      -0.88111265       0.88111265
C        0.64795494      -0.95313784       2.25288993
C        1.45492935      -1.77348817       3.08433483
C        4.10259719      -4.34450790       5.22836396
C        4.62645405      -5.46537044       4.55616990
C        5.47813936      -6.37174380       5.19702024
C        5.82696623      -6.16653861       6.52740913
Br       6.96699892      -7.39287268       7.40281636
C        5.34084963      -5.06056327       7.21687962
C        4.48995066      -4.15707683       6.56980502
H       -6.87614395       2.95375814       8.12572842
H       -6.41219843       2.48015829       9.76438000
H       -7.03803499       1.25951706       8.62293977
H       -5.12579500       3.11234317       6.49219235
H       -2.84754343       2.57562984       5.72852514
H       -2.32309870       0.00226505       9.16363160
H       -4.58949455       0.53693961       9.90912242
H       -1.22610318      -1.20115358       7.34916182
H       -0.01726802      -0.28630233       8.26787746
H        2.00283180      -2.90725281       6.27008819
H        3.52858439      -2.97926200       0.68235990
H        2.10763664      -1.57108812      -0.75591984
H       -0.16535156      -0.36758262       2.67801323
H        4.36034030      -5.64419476       3.51473940
H        5.85677223      -7.22912626       4.64721541
H        5.61701135      -4.88784936       8.25384489
H        4.14386477      -3.29214909       7.13201636
