178
Properties=species:S:1:pos:R:3 pbc="F F F"
O        7.69797204      -0.85276001      -5.78674349
C        6.69487692      -0.38566348      -5.24233967
N        6.60940045       0.98597509      -5.07392409
N        5.46053847       1.67039899      -4.79361264
C        5.06190913       1.55048370      -3.56599232
C        3.78896980       2.10227286      -3.09133923
C        3.37125125       3.38013238      -3.46201347
C        2.16380501       3.87226896      -2.96469748
C        1.37194415       3.07791672      -2.13041599
C        1.79137946       1.79137946      -1.79137946
C        3.00681995       1.29900908      -2.25736510
C        5.53719103      -1.26429344      -4.78878271
C        5.97323645      -2.52419226      -4.05633018
C        6.28207492      -2.39554602      -2.69045778
C        6.63455899      -3.50572145      -1.93542625
C        6.68142335      -4.76563550      -2.53115234
C        6.39457934      -4.94240148      -3.90853588
C        6.43052826      -6.20455606      -4.55277436
C        6.15431329      -6.35177434      -5.91150511
C        5.84607431      -5.23750729      -6.67046607
C        5.80247779      -3.98178099      -6.06660752
C        6.05325982      -3.79873519      -4.68559663
H        7.27275965       1.48125180      -5.66578391
H        5.64150626       0.97117180      -2.82416019
H        3.98441905       3.99471253      -4.11678214
H        1.83561723       4.87522260      -3.22841661
H        0.42840320       3.46768321      -1.75587740
H        3.32594064       0.29299084      -2.00043685
H        4.92520233      -1.48523182      -5.66755926
H        4.84699928      -0.74659243      -4.12339687
H        6.24410991      -1.42499177      -2.20177148
H        6.86682574      -3.38139310      -0.88014582
H        6.68086401      -7.10666748      -3.99786013
H        6.19203750      -7.33484486      -6.37244734
H        5.64530256      -5.33557501      -7.73365605
H        5.58236884      -3.13892909      -6.71580358
C        7.03907445      -5.85737859      -1.66294572
C        7.33860726      -6.77171342      -0.93582269
Br       7.82292646      -8.25011552       0.23987376
O       -0.90178446      -2.41105153      -9.31911952
C       -1.03014906      -2.42864802      -8.09275603
N       -2.21921790      -2.89330389      -7.55677785
N       -2.39675787      -3.27182128      -6.25597095
C       -2.47358256      -2.28036077      -5.42444181
C       -2.53971721      -2.47083077      -3.97203390
C       -3.35301724      -3.45295656      -3.40742330
C       -3.40232476      -3.57987491      -2.01857178
C       -2.62041081      -2.75053408      -1.20933197
C       -1.79137946      -1.79137946      -1.79137946
C       -1.75420616      -1.63518712      -3.17380085
C        0.08857856      -1.99444178      -7.15581709
C        0.77557325      -0.70417099      -7.57677663
C        0.14429882       0.50154625      -7.22283174
C        0.73195672       1.72354983      -7.51977034
C        1.96331786       1.76272317      -8.17298121
C        2.62980332       0.57390896      -8.56442602
C        3.88156372       0.56928055      -9.22959083
C        4.51283624      -0.61309178      -9.61378852
C        3.90391849      -1.82760794      -9.35534364
C        2.67244207      -1.85708292      -8.70266347
C        2.01490937      -0.67810662      -8.27692400
H       -2.75865063      -3.42360896      -8.23753576
H       -2.43474832      -1.23135145      -5.77073847
H       -3.95554534      -4.10244046      -4.03792792
H       -4.04827032      -4.32744973      -1.56353638
H       -2.65938826      -2.86401608      -0.12855947
H       -1.09982861      -0.89471863      -3.62482110
H        0.78957758      -2.82900656      -7.06810078
H       -0.25112387      -1.84060825      -6.13207160
H       -0.81194935       0.49640312      -6.70534338
H        0.22552874       2.64265336      -7.23376056
H        4.39117252       1.50166210      -9.46489129
H        5.47202780      -0.57886219     -10.12280558
H        4.37662556      -2.75572663      -9.66428254
H        2.22767882      -2.83652350      -8.55039864
C        2.50070469       3.07549849      -8.42084477
C        2.95076616       4.17494782      -8.62843050
Br       3.67847749       5.95266441      -8.96407908
O       -8.44244768      -0.49575401       4.68526185
C       -7.32856163      -0.10521290       4.32820439
N       -7.06214989       1.25325206       4.35389769
N       -5.81437840       1.80762041       4.30255129
C       -5.27354558       1.78002989       3.12480968
C       -3.89339738       2.21009344       2.87909106
C       -3.38222518       3.36940645       3.46176547
C       -2.07050230       3.75206240       3.17820674
C       -1.27331887       2.96269725       2.34426075
C       -1.79137946       1.79137946       1.79137946
C       -3.10685281       1.41320561       2.04313572
C       -6.23149789      -1.07034941       3.90053182
C       -6.71074339      -2.16735980       2.96199078
C       -6.81899873      -1.84054675       1.59853470
C       -7.19554142      -2.79860479       0.66732715
C       -7.46745732      -4.10204860       1.08153146
C       -7.38798753      -4.47465920       2.44738541
C       -7.65583974      -5.78741135       2.91031817
C       -7.58091765      -6.12735541       4.26048183
C       -7.24796896      -5.15987364       5.19093778
C       -6.97868202      -3.85917092       4.76779321
C       -7.02144283      -3.48472766       3.40340609
H       -7.73565360       1.75950414       4.92463762
H       -5.81346584       1.37302381       2.25034859
H       -4.00073295       3.97911205       4.11606872
H       -1.66537003       4.66510243       3.60878397
H       -0.24955000       3.26518779       2.13722602
H       -3.50431621       0.49515717       1.61989496
H       -5.77115740      -1.47130514       4.80767751
H       -5.40369766      -0.57448175       3.39458781
H       -6.60375781      -0.83323326       1.25036506
H       -7.27002749      -2.52240206      -0.38204698
H       -7.93404677      -6.57752637       2.21553626
H       -7.79371030      -7.14378465       4.57971432
H       -7.20246757      -5.40698261       6.24789865
H       -6.74961553      -3.13438375       5.54401154
C       -7.83196050      -5.02807865       0.04075974
C       -8.13723191      -5.80362882      -0.83088657
Br      -8.63082997      -7.05762785      -2.24026494
O        0.54001791      -2.87790342       9.21403419
C        0.73400654      -2.81996894       7.99757764
N        1.97397113      -3.19018437       7.50514414
N        2.24114614      -3.48532018       6.19808378
C        2.30631026      -2.44617564       5.42589925
C        2.45991937      -2.55124145       3.97142107
C        3.35572898      -3.45570554       3.40196258
C        3.48563264      -3.50186008       2.01327873
C        2.70251173      -2.67113031       1.20663482
C        1.79137946      -1.79137946       1.79137946
C        1.67227555      -1.71503469       3.17588390
C       -0.35602819      -2.39390397       7.02380453
C       -1.13554753      -1.16747182       7.47345008
C       -0.55490363       0.08794465       7.21983496
C       -1.22498372       1.25852446       7.54777197
C       -2.48950448       1.19571736       8.13216203
C       -3.10818929      -0.04681315       8.42208988
C       -4.39122959      -0.15504251       9.01493364
C       -4.97478280      -1.38887755       9.29994932
C       -4.28596637      -2.55302059       9.01197887
C       -3.02190188      -2.48056761       8.42863859
C       -2.40977400      -1.24639998       8.10349527
H        2.50539977      -3.72843042       8.18596516
H        2.19048980      -1.42174062       5.82460783
H        3.95940317      -4.10661622       4.02989433
H        4.19564237      -4.18748055       1.55613351
H        2.80502956      -2.72168772       0.12524653
H        0.95446975      -1.03672160       3.62817698
H       -1.00355593      -3.25823820       6.85284750
H        0.02832670      -2.16519099       6.03028603
H        0.42622189       0.16249427       6.75716199
H       -0.75636686       2.21775725       7.33970256
H       -4.96400699       0.73436737       9.27043103
H       -5.96002257      -1.43410901       9.75555354
H       -4.72167360      -3.52073780       9.24431941
H       -2.51554425      -3.42498421       8.24980337
C       -3.11194422       2.46221201       8.41879782
C       -3.63323750       3.52290128       8.65885530
Br      -4.47612464       5.23794612       9.04700793
C       -0.00445707       0.01189536      -1.78238275
H       -0.66409135       0.67374010      -2.43557963
H        0.65740317      -0.63156657      -2.45157240
C       -0.90989263      -0.90692880      -0.91072765
C        0.90977584       0.90977584      -0.90977584
C       -0.00465871       1.77757030       0.00794375
H       -0.66225468       2.44313916      -0.64384735
H        0.64322798       2.43503045       0.67728295
C       -1.78241447       0.00034974      -0.00472694
H       -2.45427497      -0.65498947       0.64260836
H       -2.43311707       0.67328779      -0.65473579
C       -0.91132561       0.90220522       0.91563759
C       -0.01476271      -0.02253852       1.78660255
H       -0.67934791      -0.69751639       2.42135241
H        0.63392994       0.61504881       2.47327442
C        0.01484550      -1.77751727      -0.01636693
H        0.67870853      -2.42144646      -0.68295456
H       -0.62264859      -2.45592969       0.64226336
C        1.78714474       0.01002794       0.00389507
H        2.44202412       0.67113390       0.66197326
H        2.45385902      -0.65136977      -0.64189061
C        0.91606151      -0.90478549       0.90901405
