170
Properties=species:S:1:pos:R:3 pbc="F F F"
O        7.69797204      -0.85276001      -5.78674349
C        6.69487692      -0.38566348      -5.24233967
N        6.60940045       0.98597509      -5.07392409
N        5.46053847       1.67039899      -4.79361264
C        5.06190913       1.55048370      -3.56599232
C        3.78896980       2.10227286      -3.09133923
C        3.37125125       3.38013238      -3.46201347
C        2.16380501       3.87226896      -2.96469748
C        1.37194415       3.07791672      -2.13041599
C        1.79137946       1.79137946      -1.79137946
C        3.00681995       1.29900908      -2.25736510
C        5.53719103      -1.26429344      -4.78878271
C        5.97323645      -2.52419226      -4.05633018
C        6.28207492      -2.39554602      -2.69045778
C        6.63455899      -3.50572145      -1.93542625
C        6.68142335      -4.76563550      -2.53115234
Br       7.15549852      -6.21276732      -1.38032351
C        6.39457934      -4.94240148      -3.90853588
C        6.43052826      -6.20455606      -4.55277436
C        6.15431329      -6.35177434      -5.91150511
C        5.84607431      -5.23750729      -6.67046607
C        5.80247779      -3.98178099      -6.06660752
C        6.05325982      -3.79873519      -4.68559663
H        7.27275965       1.48125180      -5.66578391
H        5.64150626       0.97117180      -2.82416019
H        3.98441905       3.99471253      -4.11678214
H        1.83561723       4.87522260      -3.22841661
H        0.42840320       3.46768321      -1.75587740
H        3.32594064       0.29299084      -2.00043685
H        4.92520233      -1.48523182      -5.66755926
H        4.84699928      -0.74659243      -4.12339687
H        6.24410991      -1.42499177      -2.20177148
H        6.86682574      -3.38139310      -0.88014582
H        6.68086401      -7.10666748      -3.99786013
H        6.19203750      -7.33484486      -6.37244734
H        5.64530256      -5.33557501      -7.73365605
H        5.58236884      -3.13892909      -6.71580358
O       -2.09212586      -1.17410123      -9.36572844
C       -2.01007068      -1.38755405      -8.15392839
N       -3.01437553      -2.11584010      -7.53908401
N       -2.91640604      -2.70023148      -6.30791257
C       -2.99386667      -1.86435091      -5.32016757
C       -2.78870739      -2.26829619      -3.92557830
C       -3.34785291      -3.44276068      -3.42278351
C       -3.14595080      -3.77283368      -2.08198696
C       -2.36623597      -2.94854626      -1.26549463
C       -1.79137946      -1.79137946      -1.79137946
C       -2.00821978      -1.43568980      -3.11928456
C       -0.82410107      -0.91072448      -7.32685476
C       -0.40812618       0.52279346      -7.62004165
C       -1.13680151       1.54321271      -6.98339788
C       -0.78729690       2.87585956      -7.15282644
C        0.29935673       3.21282282      -7.95911973
Br       0.69133129       5.07626086      -8.09064686
C        1.05371209       2.22012030      -8.63454612
C        2.16451624       2.51946134      -9.46272414
C        2.88480962       1.52613035     -10.12498404
C        2.50706876       0.20272657      -9.98882842
C        1.41883128      -0.12471859      -9.18141700
C        0.68033939       0.85499140      -8.47545204
H       -3.57870816      -2.62621817      -8.21486903
H       -3.16336954      -0.78508210      -5.48838660
H       -3.94835771      -4.08710989      -4.06044611
H       -3.59356432      -4.67490315      -1.67078895
H       -2.20761469      -3.21986086      -0.22448826
H       -1.55069638      -0.53971773      -3.52895422
H       -0.00657183      -1.62037669      -7.48058124
H       -1.00650162      -0.96333125      -6.25397085
H       -1.98257068       1.30473857      -6.34305750
H       -1.36465166       3.64719222      -6.64811902
H        2.48946221       3.54773297      -9.60925184
H        3.73071783       1.79226484     -10.75262264
H        3.04898215      -0.57976282     -10.51260293
H        1.14999266      -1.17623396      -9.13300202
O       -8.06376591      -0.71706119       5.28525080
C       -7.00550326      -0.28058800       4.82663785
N       -6.83342173       1.09083210       4.74504581
N       -5.63338282       1.72044497       4.57072231
C       -5.16989155       1.64606785       3.36242575
C       -3.84208158       2.14701324       2.99348707
C       -3.37614431       3.37501502       3.46223777
C       -2.11560639       3.82166750       3.06349756
C       -1.32136559       3.02970147       2.22920980
C       -1.79137946       1.79137946       1.79137946
C       -3.05803713       1.34672501       2.15843199
C       -5.87399713      -1.19962024       4.38730342
C       -6.33570515      -2.38835324       3.55802245
C       -6.55517359      -2.16522884       2.18704193
C       -6.92386554      -3.20843614       1.34883438
C       -7.07658166      -4.49475130       1.86510982
Br      -7.56183800      -5.84438086       0.60559758
C       -6.88241529      -4.76517357       3.24347202
C       -7.02725945      -6.05708948       3.80857659
C       -6.84092242      -6.29638585       5.16950750
C       -6.51633178      -5.24669290       6.00939422
C       -6.36662429      -3.96390153       5.48458156
C       -6.52428169      -3.68915902       4.10499859
H       -7.50195605       1.59067821       5.32716109
H       -5.73596422       1.14470034       2.55617369
H       -3.99170386       3.98725850       4.11695136
H       -1.74795802       4.78699488       3.40430353
H       -0.33688219       3.38311839       1.93196323
H       -3.41722385       0.37742406       1.82472043
H       -5.32863319      -1.50543007       5.28432665
H       -5.11757011      -0.68734482       3.79357843
H       -6.43390491      -1.17277839       1.75976309
H       -7.08570794      -3.01157353       0.29144404
H       -7.29436739      -6.91021261       3.18790188
H       -6.96100481      -7.29976986       5.56840503
H       -6.38487692      -5.41595530       7.07446199
H       -6.13856393      -3.17332960       6.19400899
O        3.40018529      -0.18314767       9.04862257
C        3.09368088      -0.54698176       7.91089047
N        3.87365147      -1.50696454       7.28868363
N        3.49683840      -2.23327585       6.19443585
C        3.52854290      -1.56673897       5.08310328
C        3.04560988      -2.12212210       3.81484990
C        3.34680503      -3.43013967       3.43645240
C        2.88606286      -3.90640105       2.20830754
C        2.10658262      -3.08826181       1.38543243
C        1.79137946      -1.79137946       1.79137946
C        2.26818733      -1.29431159       3.00069521
C        1.86726845      -0.00381687       7.19059499
C        1.70796989       1.50486474       7.30226922
C        2.45848990       2.29485822       6.41335500
C        2.33000552       3.67699224       6.41125051
C        1.44620131       4.29470247       7.29544134
Br       1.34394175       6.19697548       7.17608844
C        0.68074524       3.54134908       8.22131758
C       -0.22833533       4.12927115       9.13635304
C       -0.96274081       3.36794427      10.04472915
C       -0.79998734       1.99488784      10.07390827
C        0.08650718       1.38606308       9.18686022
C        0.82970288       2.12504882       8.23546719
H        4.46357799      -2.00308041       7.95313696
H        3.87161306      -0.51651519       5.04871000
H        3.94723827      -4.06830461       4.08037083
H        3.13107358      -4.91747524       1.89070761
H        1.74494534      -3.47242837       0.43459010
H        2.01239931      -0.28779843       3.31917060
H        0.99482949      -0.54300978       7.56969050
H        1.86403191      -0.23410584       6.12566597
H        3.14761304       1.83554305       5.70881963
H        2.91945036       4.26657212       5.71270021
H       -0.37890097       5.20689382       9.15785145
H       -1.65021180       3.85253541      10.73238718
H       -1.35326854       1.39131128      10.78796342
H        0.19494895       0.30849178       9.27278616
C       -0.00445707       0.01189536      -1.78238275
H       -0.66409135       0.67374010      -2.43557963
H        0.65740317      -0.63156657      -2.45157240
C       -0.90989263      -0.90692880      -0.91072765
C        0.90977584       0.90977584      -0.90977584
C       -0.00465871       1.77757030       0.00794375
H       -0.66225468       2.44313916      -0.64384735
H        0.64322798       2.43503045       0.67728295
C       -1.78241447       0.00034974      -0.00472694
H       -2.45427497      -0.65498947       0.64260836
H       -2.43311707       0.67328779      -0.65473579
C       -0.91132561       0.90220522       0.91563759
C       -0.01476271      -0.02253852       1.78660255
H       -0.67934791      -0.69751639       2.42135241
H        0.63392994       0.61504881       2.47327442
C        0.01484550      -1.77751727      -0.01636693
H        0.67870853      -2.42144646      -0.68295456
H       -0.62264859      -2.45592969       0.64226336
C        1.78714474       0.01002794       0.00389507
H        2.44202412       0.67113390       0.66197326
H        2.45385902      -0.65136977      -0.64189061
C        0.91606151      -0.90478549       0.90901405
