161
Properties=species:S:1:pos:R:3 pbc="F F F"
C        0.00000000       0.00000000       0.00000000
O        2.76833213       4.80735868       3.37503679
C        3.55343665       5.42480254       2.65986398
N        3.79088214       5.08202040       1.32397169
N        3.04432506       4.08617069       0.77393658
C        3.27847130       3.75493131      -0.45416976
C        2.46865971       2.70055186      -1.10744168
C        1.65244324       1.88908624      -0.30347467
C        0.88177768       0.88177768      -0.88177768
C        0.91274721       0.67121095      -2.25805662
C        1.72562632       1.47345768      -3.06096865
C        2.49720901       2.48869977      -2.49059806
O        3.23865454       3.22675332      -3.36934940
C        4.42106775       6.58951437       3.12710344
C        4.02380495       7.42371473       4.34899508
C        2.84529794       7.16940444       5.06510764
C        2.49604985       7.92364520       6.18040064
C        3.30775968       8.97137643       6.60143068
C        4.50107129       9.28934082       5.91315119
C        5.34899515      10.35512471       6.30561423
C        6.52326689      10.65829624       5.62220841
C        6.88798547       9.89661845       4.52784845
C        6.07374180       8.83920033       4.11568122
C        4.86691941       8.50360987       4.77883470
H        4.51733376       5.53103623       0.78004021
H        4.06843049       4.24722805      -1.04578334
H        1.62234404       2.04066670       0.77455554
H        0.30953797      -0.10997761      -2.71352724
H        1.74611393       1.31363728      -4.13633659
H        3.37275092       4.12254339      -3.02197893
H        4.50639548       7.28319423       2.28018922
H        5.40837617       6.15161766       3.32350538
H        2.15919830       6.37400449       4.78840937
H        1.58023333       7.67837166       6.71366809
H        5.10093799      10.98022196       7.16119997
H        7.14742967      11.48504285       5.95191163
H        7.80601259      10.12011216       3.99047894
H        6.41158462       8.27449968       3.25093236
C        2.85212762       9.69176194       7.76205299
C        2.47053577      10.29508480       8.73407417
Br       1.85353402      11.27060685      10.30575021
O        3.29557743      -5.01453983      -2.48169161
C        2.53167357      -5.75904430      -3.09100447
N        1.15595460      -5.52010564      -3.18477982
N        0.66805674      -4.36224021      -2.66237570
C       -0.60619848      -4.15132872      -2.73004516
C       -1.18014948      -2.89012910      -2.20637466
C       -0.37381488      -2.07249027      -1.39869900
C       -0.88177768      -0.88177768      -0.88177768
C       -2.18929415      -0.49192071      -1.16079991
C       -2.99582817      -1.30361135      -1.96061313
C       -2.49336552      -2.49591562      -2.48722569
O       -3.35977172      -3.20178063      -3.27320491
C        2.94507148      -7.06414180      -3.76440835
C        4.39628331      -7.30041608      -4.19439184
C        5.38840729      -6.32643775      -4.01156428
C        6.70658397      -6.55168265      -4.39419573
C        7.06828760      -7.75410066      -4.99189236
C        6.11213941      -8.77050192      -5.21889842
C        6.43999049     -10.00475408      -5.83374203
C        5.49114150     -11.00003814      -6.05045808
C        4.18465957     -10.79144401      -5.64997102
C        3.82941820      -9.58559826      -5.04108084
C        4.76312220      -8.54457839      -4.81023840
H        0.52496606      -6.19611276      -3.59718307
H       -1.29145814      -4.88779684      -3.18218691
H        0.64903265      -2.36795320      -1.16953465
H       -2.58762194       0.43826120      -0.76372686
H       -4.01500191      -0.99727105      -2.18381484
H       -2.86781306      -3.72057360      -3.92888658
H        2.32378001      -7.16953626      -4.66364425
H        2.67060628      -7.85397702      -3.05311772
H        5.17684647      -5.36119941      -3.56044048
H        7.44463185      -5.77246766      -4.21710109
H        7.45597854     -10.21162072      -6.16431781
H        5.77993963     -11.93344009      -6.52706042
H        3.43668013     -11.56407891      -5.80824703
H        2.78915520      -9.47853054      -4.74577660
C        8.45583440      -7.88280664      -5.35486433
C        9.61790485      -7.99059790      -5.65885335
Br      11.49687447      -8.16488725      -6.15037789
O       -3.53584196       4.16920598      -3.50439392
C       -4.31044576       4.78116196      -2.77323252
N       -4.38892453       4.55448978      -1.39448346
N       -3.49862837       3.69164071      -0.83370991
C       -3.58486231       3.46584218       0.43686787
C       -2.61655706       2.56119967       1.09889651
C       -1.79969883       1.75092443       0.29438088
C       -0.88177768       0.88177768       0.88177768
C       -0.76533318       0.80904950       2.26763210
C       -1.57805248       1.61039062       3.07160955
C       -2.49695616       2.48811266       2.49143802
O       -3.22549896       3.24003652       3.36922179
C       -5.33013413       5.80857041      -3.25522587
C       -5.13242547       6.54819740      -4.58209826
C       -4.00476585       6.33188949      -5.38706059
C       -3.83681434       6.99865244      -6.59617237
C       -4.78508440       7.91994207      -7.02732104
C       -5.93637260       8.19515210      -6.25426377
C       -6.91972580       9.13389268      -6.65511285
C       -8.05110623       9.39569810      -5.88744960
C       -8.23554965       8.71804228      -4.69683647
C       -7.28460379       7.78649445      -4.27383734
C       -6.11585552       7.49759078      -5.02175171
H       -5.10411114       4.98769185      -0.82347323
H       -4.36296563       3.94091840       1.05755785
H       -1.88377640       1.79519549      -0.79051669
H       -0.04733681       0.13621925       2.72953154
H       -1.48386584       1.55856726       4.15365470
H       -3.48040971       4.08021175       2.95665178
H       -5.40710564       6.57334702      -2.47105217
H       -6.28208635       5.26463432      -3.31023221
H       -3.21957244       5.63454495      -5.10932397
H       -2.95358435       6.78569455      -7.19434200
H       -6.81524913       9.68963229      -7.58492144
H       -8.78294751      10.12442135      -6.22680797
H       -9.11839927       8.90963425      -4.09238771
H       -7.48327949       7.28329920      -3.33142676
C       -4.51247359       8.55832832      -8.28896534
C       -4.28416204       9.09297681      -9.34559244
Br      -3.91500157       9.95745819     -11.05406910
O       -3.35420723      -4.86751395       2.68734730
C       -2.59371919      -5.61582702       3.29626737
N       -1.21062226      -5.40937070       3.35018241
N       -0.70774317      -4.27733560       2.78696674
C        0.57260719      -4.09697562       2.81798956
C        1.16399208      -2.86386798       2.24879319
C        0.35790133      -2.04626908       1.44083374
C        0.88177768      -0.88177768       0.88177768
C        2.20508483      -0.51822976       1.11870019
C        3.01132299      -1.33008226       1.91864739
C        2.49314831      -2.49606483       2.48729369
O        3.36147227      -3.20400438       3.26928061
C       -3.02195846      -6.89317043       4.01226670
C       -4.46724904      -7.08220026       4.48357338
C       -5.43944238      -6.08833516       4.30070196
C       -6.75270146      -6.27085488       4.72114099
C       -7.12866287      -7.44874318       5.35762512
C       -6.19235261      -8.48301418       5.58659935
C       -6.53483250      -9.69314815       6.24018997
C       -5.60555738     -10.70638397       6.45852814
C       -4.30484431     -10.54064878       6.02095099
C       -3.93553881      -9.35944706       5.37335265
C       -4.84891075      -8.30123199       5.13937335
H       -0.58624282      -6.09071821       3.76385438
H        1.25073983      -4.83913720       3.27156486
H       -0.67733947      -2.32142424       1.24437043
H        2.61601313       0.39159589       0.68867035
H        4.04300929      -1.04411040       2.10896811
H        2.87358554      -3.69398702       3.94970068
H       -2.38099903      -6.99205804       4.89834149
H       -2.78496939      -7.70689600       3.31456185
H       -5.21566541      -5.14009983       3.82035900
H       -7.47561477      -5.47788889       4.54266278
H       -7.54694922      -9.86618786       6.60072135
H       -5.90510050     -11.62023221       6.96542918
H       -3.57231780     -11.32775098       6.18021263
H       -2.90072507      -9.28588949       5.04998752
C       -8.50937323      -7.53351994       5.75768986
C       -9.66571816      -7.60452048       6.09274408
Br     -11.53543011      -7.71932235       6.63449842
