138
Properties=species:S:1:pos:R:3 pbc="F F F"
C        1.79213712       1.79213712      -1.79213712
C        2.09626374       1.38242099      -3.08831728
C        2.92101260       2.17671925      -3.88206445
C        3.42542129       3.37897392      -3.38439632
O        4.25299052       4.05702600      -4.23409294
C        3.10623501       3.81414440      -2.08923103
C        2.29367189       2.99387206      -1.28950853
C        3.63905437       5.04847815      -1.44510396
O        3.86939877       5.05159928      -0.23415791
N        3.86251981       6.20399776      -2.17564849
N        3.45573384       6.38014986      -3.45591971
C        3.69666454       7.54358947      -3.98051798
C        3.34291955       7.80855972      -5.39333321
C        2.42438413       6.95119131      -6.02185726
C        2.09586667       7.12698178      -7.36583060
C        2.68552172       8.15626837      -8.09432370
C        3.59670453       9.01534404      -7.47825255
C        3.92620785       8.84921610      -6.12685697
Br       5.20573489      10.04763038      -5.39831792
H        1.71014166       0.44705239      -3.48376391
H        3.17804608       1.85919517      -4.88915236
H        4.22303067       4.99622804      -3.94581687
H        2.06181790       3.29327255      -0.26930102
H        4.20471468       6.99605972      -1.63463704
H        4.19245053       8.33767090      -3.40202273
H        1.96060813       6.13390427      -5.47128716
H        1.38772529       6.45390378      -7.84416764
H        2.44032521       8.28580624      -9.14667042
H        4.05450918       9.80725949      -8.06708103
C       -1.79213712      -1.79213712      -1.79213712
C       -2.00951517      -3.12124526      -1.43624157
C       -2.79415973      -3.93021521      -2.25542136
C       -3.36735841      -3.40643580      -3.41499731
O       -4.08457542      -4.29801987      -4.16151417
C       -3.17578039      -2.06283303      -3.77099702
C       -2.36333641      -1.26306530      -2.95065076
C       -3.69354294      -1.42442121      -5.01467234
O       -3.02387767      -0.55510044      -5.57617785
N       -4.92517217      -1.77228736      -5.54470652
N       -5.82909609      -2.55503990      -4.90766741
C       -6.95951905      -2.74200508      -5.51924787
C       -7.98499217      -3.63129729      -4.92852301
C       -7.88422071      -3.94941486      -3.56379713
C       -8.79536962      -4.82283617      -2.97047326
C       -9.81073561      -5.38973810      -3.73564008
C       -9.92134044      -5.07754999      -5.09141069
C       -9.01404415      -4.19561827      -5.69261849
Br      -9.23072787      -3.87051283      -7.55044250
H       -1.56571331      -3.53858596      -0.53665869
H       -2.95732556      -4.97293336      -1.99613468
H       -4.71287007      -3.75988384      -4.69232167
H       -2.17119230      -0.22778474      -3.22541444
H       -5.19393309      -1.25914995      -6.38232841
H       -7.16399529      -2.27408506      -6.49406382
H       -7.09046383      -3.52409876      -2.95123697
H       -8.70477740      -5.06676417      -1.91425514
H      -10.51388801      -6.08211096      -3.27680291
H      -10.71534231      -5.53876488      -5.67474252
C       -1.79213712       1.79213712       1.79213712
C       -2.92432712       2.39443595       1.24823893
C       -3.71330665       3.21815628       2.04833337
C       -3.37693377       3.42502676       3.38683099
O       -4.19792310       4.28023705       4.06594930
C       -2.25286675       2.80431676       3.95242693
C       -1.45130860       1.99537256       3.13037131
C       -1.77603594       3.00623289       5.35036765
O       -0.56627643       3.00203168       5.58684784
N       -2.66593689       3.17833326       6.39789591
N       -4.00425203       2.99628517       6.29126620
C       -4.69320499       3.14546015       7.38210685
C       -6.16835688       3.02573882       7.35071677
C       -6.76134464       2.38767178       6.24841628
C       -8.14906105       2.29351530       6.14610270
C       -8.95576815       2.84012816       7.14021748
C       -8.37633029       3.47313271       8.24083811
C       -6.98307402       3.56533522       8.35387168
Br      -6.30033843       4.48108746       9.87025731
H       -3.19304124       2.24115814       0.20675858
H       -4.58987366       3.70610186       1.63041809
H       -4.09921678       4.04956756       5.01629124
H       -0.55466618       1.53222904       3.53749626
H       -2.23611209       3.28424094       7.31505841
H       -4.20328175       3.39294664       8.33591578
H       -6.14712714       1.96316515       5.45550727
H       -8.59792304       1.80233351       5.28554015
H      -10.03895474       2.77934725       7.05449988
H       -9.02382470       3.90300937       9.00201563
C        1.79213712      -1.79213712       1.79213712
C        1.20398973      -2.60222350       2.76078877
C        2.01236646      -3.38705145       3.58037839
C        3.39859555      -3.36978217       3.42041380
O        4.09419793      -4.14758578       4.30232575
C        4.00091282      -2.57663436       2.43206326
C        3.17808432      -1.77131948       1.62764867
C        5.47036054      -2.44276446       2.21951149
O        5.93647005      -1.36025873       1.85842718
N        6.32566421      -3.51752235       2.39897949
N        5.90879722      -4.79230163       2.59070455
C        6.83964985      -5.69275613       2.68836601
C        6.48231622      -7.10361634       2.95887991
C        5.15743190      -7.51076930       2.72923150
C        4.75718438      -8.81566548       3.01582918
C        5.67454843      -9.72268816       3.53887720
C        6.99382097      -9.32893647       3.76754368
C        7.40482001      -8.02193821       3.47552271
Br       9.21034176      -7.57995099       3.86139045
H        0.12593022      -2.62071587       2.89431187
H        1.56555328      -4.01069719       4.35014314
H        4.95362655      -4.34383150       3.86761754
H        3.62508244      -1.12093758       0.87837145
H        7.30649995      -3.32443021       2.20448129
H        7.90345693      -5.42370790       2.60497933
H        4.42279238      -6.81263795       2.33036923
H        3.72746607      -9.11881357       2.83951707
H        5.35984905     -10.73717105       3.77578178
H        7.69313119     -10.04933256       4.18638595
C       -0.00445707       0.01189536      -1.78238275
H       -0.66409135       0.67374010      -2.43557963
H        0.65740317      -0.63156657      -2.45157240
C       -0.90989263      -0.90692880      -0.91072765
C        0.90977584       0.90977584      -0.90977584
C       -0.00465871       1.77757030       0.00794375
H       -0.66225468       2.44313916      -0.64384735
H        0.64322798       2.43503045       0.67728295
C       -1.78241447       0.00034974      -0.00472694
H       -2.45427497      -0.65498947       0.64260836
H       -2.43311707       0.67328779      -0.65473579
C       -0.91132561       0.90220522       0.91563759
C       -0.01476271      -0.02253852       1.78660255
H       -0.67934791      -0.69751639       2.42135241
H        0.63392994       0.61504881       2.47327442
C        0.01484550      -1.77751727      -0.01636693
H        0.67870853      -2.42144646      -0.68295456
H       -0.62264859      -2.45592969       0.64226336
C        1.78714474       0.01002794       0.00389507
H        2.44202412       0.67113390       0.66197326
H        2.45385902      -0.65136977      -0.64189061
C        0.91606151      -0.90478549       0.90901405
