189
Properties=species:S:1:pos:R:3 pbc="F F F"
C        0.00000000       0.00000000       0.00000000
C        0.88276850       0.88276850      -0.88276850
C        2.26920669       0.90253462      -0.66994978
C        3.09713817       1.68062257      -1.48417803
C        2.50816262       2.44898985      -2.47569607
N        3.14434755       3.26399121      -3.42614824
C        4.56495526       3.37650322      -3.62661120
N        5.21410969       3.91654478      -2.43628210
C        6.67133898       3.95137555      -2.59045330
C        7.13005124       4.92778770      -1.51486222
C        5.88157431       5.71225988      -1.12944228
C        4.83863283       5.30496757      -2.15648627
C        2.22263289       3.82045828      -4.29293581
O        2.41331654       4.50563571      -5.27352545
C        0.84536793       3.38133106      -3.75805106
N       -0.24226411       3.85013445      -4.28166858
N       -1.45065294       3.58544102      -3.71570987
C       -2.60767719       4.00344650      -4.35432290
O       -2.64206519       4.48705582      -5.48332396
C       -3.90038654       3.77558332      -3.63661301
C       -5.01841322       3.56583050      -4.46936681
C       -6.28769329       3.33277462      -3.93764634
C       -6.46344975       3.30598781      -2.55998065
C       -5.37228743       3.52101328      -1.71794201
C       -4.09320479       3.76222937      -2.24636643
C        1.11949250       2.45799597      -2.65000580
C        0.29174228       1.64971486      -1.88890981
H        2.71373448       0.30291377       0.12172681
H        4.17094531       1.67990583      -1.32539579
H        4.77025429       3.99120821      -4.51199368
H        4.93994731       2.36772791      -3.84066670
H        6.96767785       4.33112826      -3.57704539
H        7.11954323       2.96209360      -2.45349048
H        7.53112953       4.40145545      -0.64165187
H        7.91282368       5.59094478      -1.89825818
H        5.56038550       5.41957751      -0.12208439
H        6.05746205       6.79211654      -1.12549990
H        3.82707153       5.39410703      -1.74834378
H        4.91860402       5.93874747      -3.04883403
H       -1.48904577       3.34808002      -2.73453876
H       -4.90064512       3.58493291      -5.55337071
H       -7.13420668       3.17818086      -4.60284572
H       -7.45134283       3.13014344      -2.14044313
H       -5.53577480       3.51225286      -0.64182436
H       -0.77182388       1.57511482      -2.06902548
C       -3.06316400       4.03011353      -1.27639012
C       -2.20050484       4.25446652      -0.46403496
Br      -0.80565793       4.61722632       0.84947462
C       -0.88276850      -0.88276850      -0.88276850
C       -2.18140560      -1.20155634      -0.45872915
C       -3.01468362      -1.98341305      -1.26384211
C       -2.51140662      -2.45605472      -2.46538720
N       -3.17919880      -3.21513550      -3.44015271
C       -4.57526615      -3.56418217      -3.42862136
N       -4.88946874      -4.40187560      -2.27559223
C       -6.32455450      -4.69011854      -2.19849480
C       -6.40653060      -5.89554018      -1.27063039
C       -4.99825412      -6.47765360      -1.24736876
C       -4.25021134      -5.71918363      -2.33069170
C       -2.36370590      -3.43878543      -4.53353565
O       -2.62663015      -3.98198217      -5.58386539
C       -0.99777981      -2.83524757      -4.15172267
N        0.03010359      -2.99710684      -4.92253566
N        1.26634827      -2.59980611      -4.51704011
C        2.33127331      -2.68078892      -5.40057661
O        2.22562897      -2.96194052      -6.59200304
C        3.68413304      -2.32726966      -4.86867317
C        4.57370044      -1.77677817      -5.81370636
C        5.86741041      -1.39297265      -5.45716543
C        6.29725073      -1.55370066      -4.14606879
C        5.43631973      -2.10563636      -3.19735123
C        4.13505391      -2.49974899      -3.55069593
C       -1.19862906      -2.17086010      -2.85800510
C       -0.38053445      -1.35130257      -2.09852993
H       -2.55610177      -0.83268706       0.49386739
H       -4.02420979      -2.21383081      -0.93820634
H       -4.84537489      -4.05716331      -4.37091798
H       -5.14074049      -2.62493047      -3.38267096
H       -6.73978921      -4.95683567      -3.17922662
H       -6.89055976      -3.83990960      -1.80465795
H       -6.71181059      -5.60235680      -0.26006947
H       -7.13192243      -6.62635666      -1.64374754
H       -4.54105183      -6.29381230      -0.26718327
H       -4.99511347      -7.55766887      -1.42229616
H       -3.17820971      -5.67698726      -2.11432536
H       -4.39724138      -6.20551219      -3.30343194
H        1.45353367      -2.51952478      -3.52758191
H        4.25504351      -1.64446671      -6.84823530
H        6.53497704      -0.97470860      -6.20708833
H        7.30613563      -1.26126164      -3.86411773
H        5.79939254      -2.23794252      -2.17975245
H        0.60294191      -1.04650109      -2.42875724
C        3.36627440      -3.11162321      -2.49799084
C        2.72242155      -3.62406786      -1.61635033
Br       1.68136595      -4.45264753      -0.19081220
C       -0.88276850       0.88276850       0.88276850
C       -2.15564472       1.25806541       0.42798095
C       -2.98964125       2.04088397       1.23141356
C       -2.51165773       2.45759557       2.46359524
N       -3.18672260       3.20669601       3.44106839
C       -4.56967272       3.60218038       3.39621659
N       -4.81821445       4.48654759       2.26217453
C       -6.23991753       4.82470215       2.14854814
C       -6.25213355       6.06142946       1.25913816
C       -4.82585289       6.59682087       1.30060271
C       -4.13906681       5.77940442       2.38161543
C       -2.40127571       3.36777893       4.56697233
O       -2.68137039       3.88532604       5.62578128
C       -1.04354271       2.73174192       4.20946543
N       -0.03719185       2.83441976       5.01792730
N        1.19842602       2.40947509       4.63944888
C        2.23542535       2.42650204       5.55901552
O        2.09931224       2.67251060       6.75511623
C        3.59314773       2.04548214       5.05947537
C        4.43260246       1.43556533       6.01382122
C        5.72442998       1.02061379       5.68654387
C        6.20259794       1.20907920       4.39603745
C        5.39191795       1.81960468       3.43898112
C        4.09298083       2.24520653       3.76316530
C       -1.22252948       2.11639705       2.88856774
C       -0.40643196       1.29495393       2.12898106
H       -2.51012585       0.93272318      -0.54792760
H       -3.97983484       2.31512023       0.88129186
H       -4.85496703       4.07328265       4.34520650
H       -5.16324987       2.68422562       3.30086644
H       -6.67874497       5.07337331       3.12373322
H       -6.81958589       4.00691197       1.70862945
H       -6.53290813       5.81124891       0.23007982
H       -6.96563221       6.80358100       1.63281343
H       -4.34245300       6.42952306       0.33007135
H       -4.79376540       7.66994233       1.51137077
H       -3.06237538       5.70855833       2.19858863
H       -4.30264127       6.23878691       3.36475734
H        1.41574091       2.35490694       3.65440698
H        4.07561365       1.28069107       7.03258107
H        6.35286919       0.55644884       6.44324026
H        7.21036587       0.89246971       4.13713989
H        5.79271167       1.97245110       2.43856299
H        0.55519236       0.94713243       2.48037635
C        3.37974233       2.91588852       2.70719346
C        2.78240509       3.47758469       1.82281705
Br       1.81656130       4.38579988       0.39285518
C        0.88276850      -0.88276850       0.88276850
C        2.13609791      -1.29735373       0.40823944
C        2.97054188      -2.08088558       1.21051131
C        2.51176771      -2.45870359       2.46237724
N        3.19212092      -3.20096998       3.44139610
C        4.56443772      -3.62905058       3.37458138
N        4.76690675      -4.54415883       2.25587099
C        6.17766375      -4.91737567       2.11812842
C        6.14163477      -6.17373156       1.25733484
C        4.70501315      -6.67512557       1.34313775
C        4.06180267      -5.81805033       2.42023366
C        2.42934362      -3.31861143       4.58807193
O        2.72200413      -3.81853639       5.65193719
C        1.07838679      -2.65972411       4.24663914
N        0.08883449      -2.72104591       5.07965851
N       -1.14529615      -2.27642042       4.71937368
C       -2.16100212      -2.24893425       5.66216008
O       -2.00299047      -2.47106577       6.86023929
C       -3.52094433      -1.84812428       5.18462983
C       -4.32431948      -1.19777820       6.14332536
C       -5.61367821      -0.76069787       5.83570801
C       -6.12550178      -0.96707373       4.56094676
C       -5.35096249      -1.61742757       3.60020278
C       -4.05480827      -2.06538566       3.90481362
C        1.24074299      -2.07849550       2.90825578
C        0.42606473      -1.25578522       2.14851699
H        2.47527174      -1.00225966      -0.58260997
H        3.94601200      -2.38561173       0.84462320
H        4.86081427      -4.08514212       4.32749979
H        5.17614450      -2.72735881       3.24483861
H        6.63309477      -5.15409198       3.08866474
H        6.76529670      -4.12322015       1.64661046
H        6.40422924      -5.95326025       0.21674736
H        6.84667732      -6.92350486       1.63184446
H        4.20331106      -6.51861128       0.38012507
H        4.65367222      -7.74221827       1.57918800
H        2.98305222      -5.72660174       2.25986838
H        4.23757076      -6.25886245       3.40975230
H       -1.38391763      -2.23902066       3.73846999
H       -3.94061448      -1.02829708       7.14997590
H       -6.21396605      -0.26532098       6.59546496
H       -7.13158572      -0.63327824       4.31755121
H       -5.77798252      -1.78346269       2.61282225
H       -0.51916799      -0.87814004       2.51334436
C       -3.38128594      -2.77584767       2.84877792
C       -2.81721098      -3.37085961       1.96434802
Br      -1.90514949      -4.33294358       0.53429968
