177
Properties=species:S:1:pos:R:3 pbc="F F F"
C        0.00000000       0.00000000       0.00000000
C        0.88201411       0.88201411      -0.88201411
C        1.37215709       0.38364394      -2.08917984
C        2.18991081       1.18475635      -2.89460807
C        2.51532307       2.48666907      -2.49006714
C        2.02227657       2.97296360      -1.27018472
C        1.20165161       2.17374415      -0.46862551
C        3.41896574       3.36198301      -3.29054230
O        4.08862913       4.22621347      -2.73340648
N        3.43514856       3.16217093      -4.64896998
C        4.22434876       3.99671193      -5.54641670
C        3.54613784       4.03427397      -6.92123259
O        2.54330990       3.35203788      -7.13613176
N        4.18331170       4.85802057      -7.83421756
C        3.75283176       5.20033790      -9.14488202
C        2.52019639       4.76812945      -9.65454518
C        2.07789105       5.16284875     -10.92096720
C        2.85297108       6.02128019     -11.68636302
Br       2.24473161       6.57761968     -13.38608415
C        4.08172954       6.46685600     -11.21119833
C        4.56176286       6.02657126      -9.96336279
C        5.92852930       6.45004107      -9.52401012
O        6.18447518       6.52043191      -8.32324037
C        6.99566257       6.77310875     -10.51269130
C        7.16562350       6.01584982     -11.68038017
C        8.14380962       6.37373747     -12.61063439
C        8.97133122       7.46887720     -12.36630158
C        8.83147125       8.20128771     -11.18699161
C        7.84861247       7.85241896     -10.25699447
H        1.13478603      -0.62945201      -2.40476440
H        2.58947256       0.76638428      -3.81406622
H        2.28045808       3.97745939      -0.93934251
H        0.82774051       2.56477516       0.47442067
H        2.72484124       2.58729155      -5.09188562
H        5.21344785       3.53949666      -5.64182520
H        4.31420960       5.00942937      -5.14266065
H        5.04456024       5.32498660      -7.53336782
H        1.85710299       4.12512474      -9.08439487
H        1.11760126       4.80385865     -11.28350208
H        4.65875451       7.15857937     -11.82010734
H        6.54556314       5.14604798     -11.88210615
H        8.26329960       5.79718651     -13.52526652
H        9.73315520       7.74630135     -13.09174732
H        9.48887569       9.04585604     -10.99309007
H        7.74585300       8.42978124      -9.34067752
C       -0.88201411      -0.88201411      -0.88201411
C       -1.28430829      -2.13669496      -0.42397762
C       -2.08302841      -2.95241796      -1.23382886
C       -2.47964777      -2.50936297      -2.50304853
C       -2.06178650      -1.24881483      -2.95482356
C       -1.26795518      -0.43276365      -2.14330245
C       -3.29175159      -3.35934910      -3.42039035
O       -3.19749960      -3.21539515      -4.63535433
N       -4.14183184      -4.26674346      -2.83771415
C       -5.03661666      -5.10708222      -3.62377849
C       -6.27288593      -5.44640584      -2.78235263
O       -6.34210841      -5.08146096      -1.60791017
N       -7.22248310      -6.19040921      -3.46265752
C       -8.51689542      -6.56812455      -3.01303172
C       -9.02685916      -6.13526140      -1.78075046
C      -10.32535055      -6.46013198      -1.37622447
C      -11.14437387      -7.20176003      -2.21448040
Br     -12.90818943      -7.61849861      -1.68174741
C      -10.66867962      -7.64848925      -3.44261501
C       -9.34326645      -7.37717251      -3.83125795
C       -8.83424499      -7.95238447      -5.11595103
O       -7.92865483      -7.37985919      -5.71963343
C       -9.39044619      -9.21741545      -5.67360098
C       -9.71198158     -10.30312166      -4.84675025
C      -10.27679471     -11.45695852      -5.39442825
C      -10.49651350     -11.54137036      -6.76862615
C      -10.14149395     -10.47843459      -7.59982204
C       -9.58391832      -9.31841290      -7.05569467
H       -0.97100458      -2.49334951       0.55425566
H       -2.35708781      -3.93975706      -0.87307819
H       -2.35198318      -0.90065645      -3.94462035
H       -0.95174838       0.54149328      -2.50783990
H       -4.34406068      -4.21609216      -1.84386557
H       -4.49922995      -6.02812699      -3.86741277
H       -5.33497722      -4.59055413      -4.54076827
H       -7.00669882      -6.47209836      -4.42411748
H       -8.44291442      -5.52230165      -1.10140654
H      -10.68419389      -6.10918224      -0.41158586
H      -11.33870579      -8.20709634      -4.09163909
H       -9.53070368     -10.26752168      -3.77549191
H      -10.54329190     -12.29207829      -4.75038244
H      -10.93628598     -12.44100533      -7.19391256
H      -10.30065184     -10.55402157      -8.67314838
H       -9.31117711      -8.49403463      -7.71110002
C       -0.88201411       0.88201411       0.88201411
C       -0.84979199       0.72722261       2.26796627
C       -1.66486496       1.52566134       3.07874893
C       -2.51171780       2.48066715       2.49967433
C       -2.54031553       2.62086248       1.10424687
C       -1.72233405       1.82619556       0.29549167
C       -3.43139061       3.32293754       3.31716289
O       -4.47591101       3.74316260       2.82917548
N       -3.03636011       3.60921287       4.60071649
C       -3.81415523       4.47692325       5.47639890
C       -2.86965226       5.15743857       6.47455356
O       -1.67283573       4.86655327       6.49209054
N       -3.50239590       6.05887267       7.31428126
C       -2.90354284       6.93053962       8.26396922
C       -1.51182380       7.02542554       8.40562167
C       -0.93153457       7.93208353       9.29808890
C       -1.73793746       8.77914714      10.04352969
Br      -0.95511801      10.02368765      11.22962978
C       -3.12214194       8.70927528       9.92836665
C       -3.71607938       7.75842082       9.07719670
C       -5.20839126       7.64640150       9.04778774
O       -5.76502467       7.22961131       8.03351147
C       -6.03723013       8.01378009      10.23045241
C       -5.63573756       7.69152402      11.53459191
C       -6.41088925       8.09240864      12.62488359
C       -7.59976798       8.79023860      12.41650343
C       -8.02276615       9.07846298      11.11852145
C       -7.24645311       8.68699046      10.02458232
H       -0.20493626      -0.01962352       2.72478569
H       -1.65059285       1.36613463       4.15319559
H       -3.20482341       3.34943088       0.64300569
H       -1.75622361       1.94640393      -0.78453254
H       -2.08403471       3.42111722       4.89886649
H       -4.52578241       3.84888205       6.02010525
H       -4.34763957       5.22982227       4.88883778
H       -4.51814680       6.16085539       7.22391247
H       -0.83240559       6.41271169       7.82150532
H        0.15176284       7.97390189       9.38282294
H       -3.73094120       9.40102907      10.50547095
H       -4.72317822       7.13062037      11.71991868
H       -6.08983361       7.85841063      13.63750840
H       -8.20277579       9.10160455      13.26682353
H       -8.95837205       9.60991329      10.95953646
H       -7.58333481       8.91694550       9.01603145
C        0.88201411      -0.88201411       0.88201411
C        1.04769188      -2.23068988       0.56659911
C        1.84587333      -3.04465422       1.37874768
C        2.47928972      -2.50578248       2.50698708
C        2.29817433      -1.14985656       2.81739400
C        1.50458243      -0.33650734       2.00293151
C        3.30208091      -3.34151965       3.42789049
O        3.40769476      -3.03038454       4.61016978
N        3.93306024      -4.43181418       2.88141504
C        4.81877032      -5.28716974       3.66153732
C        5.86318230      -5.91069267       2.72776943
O        5.80436993      -5.71387535       1.51323426
N        6.79938658      -6.69326057       3.38290269
C        7.95378781      -7.31270579       2.83155808
C        8.32736134      -7.12184799       1.49366168
C        9.49921465      -7.68428190       0.97821045
C       10.33102017      -8.42493786       1.80465627
Br      11.92844570      -9.16269534       1.11729440
C        9.98865921      -8.63499044       3.13613422
C        8.78117997      -8.12313508       3.64738186
C        8.39799426      -8.44699457       5.05759166
O        7.67267644      -7.67418645       5.68128456
C        8.86337428      -9.69812030       5.71996804
C        8.91705256     -10.91652388       5.02827704
C        9.40368482     -12.06116104       5.66333562
C        9.81139594     -11.99992150       6.99519256
C        9.72259931     -10.79834112       7.69881015
C        9.24438352      -9.64825243       7.06538994
H        0.55007850      -2.65977474      -0.29975481
H        1.93451048      -4.09971690       1.13569568
H        2.77374567      -0.72420343       3.69931088
H        1.37349313       0.71244148       2.25704335
H        3.99100416      -4.53966999       1.87334427
H        4.20949994      -6.07968017       4.10558959
H        5.31321152      -4.70696279       4.44612531
H        6.69369074      -6.81412732       4.39509659
H        7.73304443      -6.52170197       0.81187620
H        9.75362609      -7.51704530      -0.06570939
H       10.66989118      -9.19845132       3.76909871
H        8.58553935     -10.99240489       3.99577304
H        9.46258892     -13.00221669       5.12094703
H       10.18996728     -12.89251642       7.48872017
H       10.02759072     -10.75813858       8.74209249
H        9.17965550      -8.71534871       7.62130756
