181
Properties=species:S:1:pos:R:3 pbc="F F F"
C        0.00000000       0.00000000       0.00000000
C        0.88154342       0.88154342      -0.88154342
C        2.13360652       1.28440414      -0.42450941
C        2.93910237       2.09386547      -1.23122527
C        2.50412557       2.49369069      -2.50326707
C        1.23370922       2.09356644      -2.93896973
C        0.42574816       1.28483112      -2.13406271
C        3.30560760       3.36937651      -3.36866660
C        4.64381071       3.32052123      -3.44320023
C        5.36819533       4.26026304      -4.32271810
O        4.85845892       4.99036345      -5.15645993
O        6.69599952       4.16337091      -4.01721269
N        7.45160031       5.17183649      -4.64012508
C        8.23151366       4.90979866      -5.74588592
N        8.89888789       5.85553125      -6.34168207
C        8.82157163       7.16184489      -5.82686683
C        9.46413570       8.19489313      -6.51303206
C        9.42465316       9.50646191      -6.02767222
C        8.74592556       9.79751154      -4.84421692
C        8.09826554       8.77841295      -4.14899546
C        8.13681544       7.47212416      -4.64989588
C        7.42967594       6.37894231      -3.96314025
O        6.88406748       6.56956240      -2.88034881
C        8.31688718       3.52133692      -6.29719368
C        8.32422419       2.37917783      -5.48478968
C        8.40862121       1.10420789      -6.05502745
C        8.52776170       0.96850534      -7.43650428
C        8.57051407       2.09519205      -8.25366365
C        8.46588397       3.36816623      -7.68445258
H        2.48921317       0.98381611       0.55761106
H        3.90146855       2.41846517      -0.84250427
H        0.86189343       2.40347025      -3.91373503
H       -0.55395977       0.98063444      -2.49285108
H        2.74875846       4.08571228      -3.97085037
H        5.23763048       2.61835250      -2.87178400
H        9.99697436       7.97550358      -7.43486570
H        9.92477241      10.30138494      -6.57621455
H        8.71654034      10.81721327      -4.46746659
H        7.55978418       9.00092252      -3.23072938
H        8.29028180       2.45392279      -4.40193960
H        8.39405638       0.22687477      -5.41285546
H        8.68753185       1.99731614      -9.33003701
H        8.50568846       4.24254309      -8.33214769
C        8.62174997      -0.34467312      -8.01988111
C        8.70046514      -1.44446008      -8.50845921
Br       8.82774093      -3.22272258      -9.29844867
C       -0.88154342      -0.88154342      -0.88154342
C       -2.12369017      -1.30378583      -0.41504407
C       -2.92915522      -2.11323289      -1.22180500
C       -2.50423345      -2.49370172      -2.50314817
C       -1.24346166      -2.07422665      -2.94855708
C       -0.43554416      -1.26545699      -2.14364084
C       -3.30560771      -3.36865723      -3.36938577
C       -4.64503966      -3.33422999      -3.42826251
C       -5.36876513      -4.27219476      -4.31021658
O       -4.86037022      -4.98698611      -5.15792597
O       -6.69400683      -4.19390373      -3.98867256
N       -7.44524290      -5.20383303      -4.61448595
C       -8.24062200      -4.93825483      -5.70832140
N       -8.90404101      -5.88475877      -6.30730144
C       -8.80613270      -7.19582785      -5.80832280
C       -9.44479079      -8.22833420      -6.49893591
C       -9.38498801      -9.54475709      -6.02904218
C       -8.68956840      -9.84137350      -4.85671214
C       -8.04555442      -8.82285900      -4.15726052
C       -8.10454237      -7.51152954      -4.64276357
C       -7.40198852      -6.41816749      -3.95160249
O       -6.84195147      -6.61475037      -2.87727685
C       -8.34792906      -3.54472861      -6.24276011
C       -8.35887908      -2.41196109      -5.41735152
C       -8.46414588      -1.13168747      -5.97202320
C       -8.60055705      -0.98178310      -7.35043117
C       -8.63991868      -2.09959787      -8.17985322
C       -8.51445561      -3.37763365      -7.62641352
H       -2.47143953      -1.01836694       0.57438825
H       -3.88330393      -2.45315002      -0.82598404
H       -0.87931631      -2.36885819      -3.93092420
H        0.53651552      -0.94608000      -2.50996127
H       -2.74762042      -4.07175952      -3.98594116
H       -5.24018397      -2.64536762      -2.84221539
H       -9.99054836      -8.00465494      -7.41214033
H       -9.88233520     -10.33909616      -6.58094053
H       -8.64439155     -10.86485731      -4.49197134
H       -7.49416038      -9.04955329      -3.24772241
H       -8.31174827      -2.49851997      -4.33587594
H       -8.45215210      -0.26154247      -5.32009205
H       -8.77030116      -1.99093152      -9.25365232
H       -8.55178214      -4.24504835      -8.28354875
C       -8.71599458       0.33673291      -7.91769629
C       -8.81267351       1.44099006      -8.39278083
Br      -8.96899516       3.22648049      -9.16095235
C       -0.88154342       0.88154342       0.88154342
C       -2.15116312       1.24837691       0.44298003
C       -2.95671800       2.05786246       1.24961265
C       -2.50392121       2.49367704       2.50348508
C       -1.21645958       2.12950721       2.92027859
C       -0.40841833       1.32083729       2.11538636
C       -3.30565075       3.37069136       3.36730860
C       -4.64066399       3.29553573       3.47133246
C       -5.36640035       4.23848624       4.34628987
O       -4.85505343       4.99665240       5.15357647
O       -6.69792220       4.10743697       4.07122395
N       -7.46167650       5.11296383       4.68892155
C       -8.21259985       4.85832981       5.81626857
N       -8.88739610       5.80241404       6.40629108
C       -8.84867638       7.09879378       5.86281319
C       -9.49864862       8.13259720       6.54081508
C       -9.49724342       9.43406809       6.02747577
C       -8.84969922       9.71393576       4.82401905
C       -8.19511931       8.69398917       4.13656547
C       -8.19538063       7.39814639       4.66530847
C       -7.47959310       6.30557030       3.98659511
O       -6.96087022       6.48442090       2.88868758
C       -8.25686235       3.48044775       6.39810767
C       -8.25681108       2.32133864       5.61004198
C       -8.30212015       1.05732152       6.20841488
C       -8.38950497       0.94862065       7.59464570
C       -8.43919461       2.09132088       8.38885428
C       -8.37359753       3.35378698       7.79111827
H       -2.52069222       0.91958624      -0.52486025
H       -3.93367780       2.35396676       0.87479343
H       -0.83108037       2.46779091       3.88022742
H        0.58481663       1.04485105       2.45949134
H       -2.75174823       4.11114927       3.94242361
H       -5.23118077       2.56912286       2.92746334
H      -10.00735152       7.92182777       7.47816435
H      -10.00263223      10.22989154       6.56984814
H       -8.84990476      10.72577216       4.42554327
H       -7.68076827       8.90807091       3.20259691
H       -8.24705988       2.37369301       4.52539129
H       -8.28226733       0.16700349       5.58451579
H       -8.53162665       2.01397526       9.46928309
H       -8.41850063       4.24074131       8.42113730
C       -8.44331313      -0.35350817       8.20715300
C       -8.48837747      -1.44404107       8.72012787
Br      -8.56124269      -3.20734052       9.54956485
C        0.88154342      -0.88154342       0.88154342
C        2.09375059      -1.35878649       0.38998298
C        2.89913186      -2.16818835       1.19687289
C        2.50453170      -2.49374704       2.50280459
C        1.27294083      -2.01932723       2.97397732
C        0.46514857      -1.21046334       2.16903007
C        3.30569702      -3.36657055       3.37138314
C        4.64675627      -3.37415238       3.38662352
C        5.36887097      -4.30688021       4.27542528
O        4.86609650      -4.97742469       5.16176111
O        6.68469375      -4.28223541       3.90965396
N        7.42362643      -5.29587091       4.54406453
C        8.26239711      -5.02193585       5.60286528
N        8.91473570      -5.97018801       6.21117751
C        8.75904805      -7.29250457       5.75873072
C        9.38692502      -8.32295546       6.46218041
C        9.27008562      -9.65094572       6.03775594
C        8.52761789      -9.96164601       4.89839013
C        7.89365789      -8.94527727       4.18673879
C        8.01003279      -7.62185380       4.62694890
C        7.32023707      -6.52853648       3.92298496
O        6.71938918      -6.74063225       2.87395725
C        8.43124752      -3.61643159       6.08773867
C        8.45106975      -2.51135698       5.22576496
C        8.61495512      -1.21827975       5.73462169
C        8.80109020      -1.02931208       7.10236904
C        8.83213261      -2.12096896       7.96626820
C        8.64818319      -3.41111062       7.45920896
H        2.41780037      -1.11640216      -0.61878431
H        3.82856231      -2.55152564       0.78235003
H        0.93198889      -2.27060192       3.97650789
H       -0.48379074      -0.84799356       2.55532293
H        2.74618650      -4.03114055       4.02799405
H        5.24393246      -2.72405680       2.75977771
H        9.96909353      -8.08843023       7.34981987
H        9.75980617     -10.44324761       6.59931811
H        8.43811448     -10.99414763       4.56895808
H        7.30588321      -9.18251372       3.30303915
H        8.36584835      -2.63055685       4.14973900
H        8.60921237      -0.36930627       5.05526797
H        9.00096861      -1.98265267       9.03126372
H        8.67948924      -4.25802083       8.14286917
C        8.97675986       0.30203405       7.62223215
C        9.12388320       1.41703643       8.05761751
Br       9.36176920       3.21990098       8.76159880
