193
Properties=species:S:1:pos:R:3 pbc="F F F"
C        0.00000000       0.00000000       0.00000000
C        0.88160423       0.88160423      -0.88160423
C        0.38188424       2.08136413      -1.37745520
C        1.18812057       2.88596932      -2.18659513
C        2.49951605       2.50108804      -2.51204440
C        2.98718417       1.29102437      -1.99082138
C        2.18101039       0.48295737      -1.18324686
C        3.38665016       3.35369797      -3.39426309
H        4.26740464       3.67429135      -2.82469162
O        2.67651209       4.56445772      -3.82571728
C        2.92851353       4.79186151      -5.22784769
C        4.08517057       3.90405426      -5.52473638
H        5.02162553       4.37428323      -5.17945384
C        4.40430949       3.22295969      -6.80809715
O        4.21588517       3.72228826      -7.90367550
N        5.03477782       2.03667497      -6.43298165
C        5.84781392       1.24473544      -7.28924112
C        6.50792429       1.86568195      -8.36784165
C        7.35475389       1.15031808      -9.22017914
C        7.55691194      -0.20810188      -9.01944876
C        6.89041392      -0.85569551      -7.98284369
C        6.03025563      -0.14479655      -7.12972554
Br       4.99852982      -1.22574077      -5.94464838
C        4.93387097       1.87956107      -5.04840392
O        5.67255760       1.32247102      -4.25792076
C        3.73804522       2.69434946      -4.69348735
H        2.86616967       2.14374138      -5.08121016
C        1.69802943       4.56428209      -6.10565470
O        1.09263359       3.52036200      -6.26977315
C        1.33262781       5.83575759      -6.72643485
C        0.26470623       6.10313439      -7.56292929
C        0.12011006       7.41456985      -8.02430180
C        1.03498028       8.41737282      -7.64708970
C        2.11094632       8.12545139      -6.80321698
C        2.23574422       6.82322080      -6.35530173
C        3.25818935       6.26251811      -5.47153665
O        4.20050743       6.89563642      -5.02964475
H       -0.63003752       2.40182888      -1.14439016
H        0.77418861       3.81961673      -2.56252761
H        4.00294152       0.96200006      -2.20625443
H        2.57762474      -0.45193486      -0.79601746
H        6.40337911       2.93224205      -8.55617005
H        7.85685022       1.66139744     -10.03870150
H        8.21315299      -0.76776994      -9.68148417
H        7.02438063      -1.92896379      -7.86340788
H       -0.43533861       5.32327059      -7.84791681
H       -0.70961214       7.66587966      -8.68315048
H        0.90045897       9.43210967      -8.01848980
H        2.82035592       8.89255830      -6.50705681
C       -0.88160423      -0.88160423      -0.88160423
C       -2.11725366      -0.41039792      -1.31305199
C       -2.92467933      -1.21887508      -2.11713061
C       -2.50970825      -2.50636467      -2.49657558
C       -1.25318034      -2.95711766      -2.05873192
C       -0.44485758      -2.15074069      -1.25161635
C       -3.37291455      -3.40191743      -3.35977924
H       -2.85150993      -3.61371744      -4.30116024
O       -4.63630754      -2.73359567      -3.69678388
C       -5.72469770      -3.66963754      -3.55388749
C       -5.04368649      -4.99059087      -3.47968385
H       -4.75791123      -5.32641208      -4.49103929
C       -5.48825689      -6.20405330      -2.74305614
O       -6.65394013      -6.54503753      -2.64287127
N       -4.30702158      -6.83853332      -2.35887954
C       -4.20871520      -8.20265029      -1.97042499
C       -5.15539908      -9.12155399      -2.46449482
C       -5.08812997     -10.48328493      -2.15383622
C       -4.07501413     -10.95978179      -1.33346290
C       -3.14582818     -10.06956300      -0.80217092
C       -3.21426107      -8.69897529      -1.10194826
Br      -2.04016059      -7.59323827      -0.08403856
C       -3.22344133      -6.00156318      -2.63683146
O       -2.06928622      -6.26589080      -2.91777236
C       -3.83143682      -4.64144366      -2.65300154
H       -4.08021451      -4.40466782      -1.60623888
C       -6.64334504      -3.34981299      -2.37480820
O       -6.34948181      -3.34032582      -1.19296111
C       -7.96957233      -3.02791083      -2.89733709
C       -9.09532201      -2.64195330      -2.19349460
C      -10.25478830      -2.37661997      -2.92757343
C      -10.26548010      -2.50327311      -4.33068958
C       -9.11721128      -2.89888431      -5.02351908
C       -7.97959508      -3.15446582      -4.28020585
C       -6.66136907      -3.57507031      -4.75580474
O       -6.39794109      -3.80509614      -5.92275137
H       -2.46462205       0.58014931      -1.03170877
H       -3.88711039      -0.82781128      -2.44141127
H       -0.88648098      -3.94294277      -2.34177226
H        0.52099037      -2.52276120      -0.91993651
H       -5.95582953      -8.80557290      -3.13038878
H       -5.82959265     -11.16841726      -2.55893925
H       -4.02089573     -12.01767428      -1.08829721
H       -2.38278418     -10.44999813      -0.12604242
H       -9.07707409      -2.54700058      -1.11177411
H      -11.16165808      -2.06773010      -2.41002982
H      -11.18070304      -2.28968953      -4.88066589
H       -9.11662881      -2.99837650      -6.10496571
C       -0.88160423       0.88160423       0.88160423
C       -1.93629251       0.31475921       1.58965185
C       -2.74440333       1.12261761       2.39366407
C       -2.51107928       2.50413902       2.49743020
C       -1.43342525       3.05307343       1.78253124
C       -0.62526542       2.24685671       0.97509249
C       -3.37999075       3.39881590       3.35580457
H       -2.76950239       3.84875637       4.14812885
O       -4.44100796       2.61939156       4.00628758
C       -5.68636141       3.34240102       3.91946029
C       -5.26782926       4.71619292       3.52993903
H       -4.89801895       5.26395945       4.41338420
C       -6.02435902       5.70052447       2.71048284
O       -7.23358966       5.84057373       2.76768555
N       -5.04435032       6.42643726       2.03364687
C       -5.24728323       7.69980350       1.43470376
C       -6.25664333       8.53963388       1.94517067
C       -6.47773772       9.81976523       1.42774817
C       -5.69856041      10.28994040       0.37975801
C       -4.71684097       9.46884147      -0.16812035
C       -4.49694144       8.17800023       0.34024296
Br      -3.31157844       7.09795958      -0.69210059
C       -3.80098544       5.82291917       2.23793135
O       -2.68273958       6.30195751       2.26825229
C       -4.15023489       4.41168731       2.56395982
H       -4.50680337       3.95956478       1.62475305
C       -6.69977841       2.68612929       2.98205853
O       -6.58864586       2.51233676       1.78178611
C       -7.85532665       2.26708783       3.77240578
C       -8.98762420       1.59936738       3.34377833
C       -9.95931679       1.29757128       4.30209362
C       -9.78256990       1.66666063       5.65021227
C       -8.63170949       2.34519330       6.06271189
C       -7.68093446       2.63261063       5.10072166
C       -6.40155721       3.32252311       5.26816378
O       -6.01160091       3.79146183       6.32272587
H       -2.14156695      -0.75046141       1.52507598
H       -3.56340204       0.65563738       2.93729351
H       -1.20825681       4.11688518       1.84605402
H        0.19931156       2.69451422       0.42650468
H       -6.88026457       8.23013971       2.78138694
H       -7.25948450      10.44710009       1.85036456
H       -5.86908505      11.28404358      -0.02626141
H       -4.14248981       9.83365847      -1.01732356
H       -9.11462564       1.31893153       2.30229162
H      -10.86443560       0.77036826       4.00461413
H      -10.55324281       1.41921028       6.37860536
H       -8.48722877       2.63280886       7.09993340
C        0.88160423      -0.88160423       0.88160423
C        0.33834961      -2.00373684       1.49861711
C        1.14491455      -2.80814966       2.30762081
C        2.50033844      -2.50021354       2.51209651
C        3.03043035      -1.36868927       1.86991031
C        2.22428339      -0.56072891       1.06220232
C        3.38949472      -3.35334175       3.39177475
H        4.20119831      -3.77712448       2.78806481
O        2.63136244      -4.47523240       3.96009225
C        2.97054240      -4.62322755       5.35445278
C        4.20468387      -3.80543858       5.50383876
H        5.07812146      -4.36671310       5.13052804
C        4.66465357      -3.06283187       6.70788089
O        4.52409555      -3.46981379       7.84793959
N        5.34602225      -1.95547272       6.20293947
C        6.27326077      -1.16883575       6.93969397
C        6.96718162      -1.76104442       8.01322185
C        7.92245209      -1.05337025       8.74942878
C        8.20258730       0.26912622       8.43479775
C        7.50727564       0.89122323       7.40150969
C        6.53899609       0.18892751       6.66511604
Br       5.49927686       1.25901264       5.47717321
C        5.15360000      -1.88741984       4.82081613
O        5.86824664      -1.44277182       3.94193092
C        3.88122907      -2.63366899       4.61098396
H        3.08074993      -1.99429525       5.01607602
C        1.82739174      -4.24467072       6.29590377
O        1.30951174      -3.14980134       6.42345566
C        1.42208691      -5.43949165       7.03324170
C        0.40336051      -5.56827256       7.95913684
C        0.20310986      -6.83028088       8.52559096
C        1.01587174      -7.92198189       8.16158917
C        2.04375003      -7.76989126       7.22597340
C        2.22466829      -6.51463822       6.67496024
C        3.21492460      -6.09393593       5.68338358
O        4.07575061      -6.82437493       5.22566306
H       -0.70782707      -2.26345737       1.36055122
H        0.69649509      -3.68021314       2.77962470
H        4.07970433      -1.10195777       1.98953391
H        2.65472119       0.31307877       0.58006493
H        6.80341648      -2.80130107       8.28707367
H        8.44744396      -1.54252115       9.56698404
H        8.94334365       0.82291337       9.00643694
H        7.70589430       1.94073098       7.19366140
H       -0.21795701      -4.72070245       8.23310335
H       -0.59073926      -6.97306563       9.25709163
H        0.83947498      -8.89579511       8.61578837
H        2.67443577      -8.60623900       6.93929625
