150
Properties=species:S:1:pos:R:3 pbc="F F F"
C       -0.07292325       6.48310126      -9.31136649
O       -0.39876864       7.66429029      -8.58550993
C       -0.07631455       7.65432036      -7.25020118
C        0.13440862       6.51184240      -6.47581492
C        0.44972721       6.63591205      -5.11527356
C        0.64844701       5.44129374      -4.29247739
C        1.82077660       4.81377011      -4.12215028
C        3.14999509       5.17799678      -4.73548585
O        3.40329162       6.07180270      -5.51833931
N        4.04406224       4.25070487      -4.22040239
C        3.41213767       3.34881516      -3.37005870
C        3.99805689       2.29801126      -2.69388653
C        3.16787615       1.50961160      -1.89222648
C        1.79299705       1.79299705      -1.79299705
C        1.21639969       2.86344794      -2.48387566
C        2.04777417       3.63704737      -3.27467834
C        0.56005770       7.90430334      -4.53302719
C        0.33658956       9.04674168      -5.30191195
Br       0.48419362      10.74382509      -4.47123608
C        0.00818776       8.91896128      -6.65065337
O       -0.23346646      10.02994340      -7.41901864
H       -0.22108889       6.69524789     -10.37460127
H       -0.74149244       5.65993221      -9.04061305
H        0.97687202       6.20448144      -9.16942177
H        0.05158544       5.51854796      -6.90477564
H       -0.24936460       5.09245557      -3.78924470
H        5.02386558       4.25428514      -4.45977893
H        5.05793766       2.08576444      -2.77538879
H        3.59508716       0.67236246      -1.34418218
H        0.15630869       3.07634434      -2.40110606
H        0.81977177       7.99977183      -3.48171371
H       -0.43632428       9.68709991      -8.31077040
C       -2.11542807      -2.82190088     -10.78421556
O       -1.18209369      -3.89752787     -10.77141002
C       -0.88030090      -4.41339749      -9.53450859
C       -1.05270806      -3.75263578      -8.31672210
C       -0.69528587      -4.38707949      -7.11854747
C       -0.85143183      -3.69053427      -5.84025204
C       -1.95873153      -3.71305063      -5.08491483
C       -3.25481389      -4.42465004      -5.38401380
O       -3.55372586      -5.07223279      -6.36747499
N       -4.06116440      -4.16968664      -4.28431846
C       -3.41208998      -3.37020013      -3.34872142
C       -3.92101291      -2.92235729      -2.14658449
C       -3.09119212      -2.11962981      -1.35889231
C       -1.79299705      -1.79299705      -1.79299705
C       -1.29276248      -2.25742496      -3.01353585
C       -2.12314705      -3.05116315      -3.78518967
C       -0.17151850      -5.68522414      -7.14064558
C        0.01414496      -6.34200069      -8.35738745
Br       0.73737606      -8.09375061      -8.34288024
C       -0.32805363      -5.70210432      -9.54764446
O       -0.13569587      -6.32428298     -10.75551673
H       -2.38963698      -2.63260135     -11.82652195
H       -1.66412016      -1.90686805     -10.38806461
H       -3.03003809      -3.08084244     -10.23989470
H       -1.45420415      -2.74536769      -8.27533720
H        0.03303526      -3.14772896      -5.51764196
H       -5.00040547      -4.52934893      -4.20817526
H       -4.92216517      -3.17801650      -1.81890922
H       -3.45882403      -1.74826488      -0.40454289
H       -0.29069342      -2.00259369      -3.34047199
H        0.09084211      -6.18210164      -6.20999778
H       -0.44849484      -5.68687580     -11.42617539
C      -10.47137248       4.25383873       0.99633329
O      -10.93486161       3.14938114       1.76678883
C       -9.96720529       2.43286850       2.42813319
C       -8.60993131       2.41056558       2.10156905
C       -7.72146624       1.62741406       2.85203252
C       -6.30108687       1.58121211       2.49991917
C       -5.36716552       2.42113953       2.96839194
C       -5.56966271       3.57490231       3.91891272
O       -6.60558226       3.98237388       4.40547750
N       -4.30006506       4.09761171       4.11749274
C       -3.34133260       3.40402006       3.38565887
C       -1.98561428       3.65914629       3.34519412
C       -1.20263519       2.83484617       2.53223288
C       -1.79299705       1.79299705       1.79299705
C       -3.16863860       1.54749236       1.84759233
C       -3.93401809       2.36994925       2.65553253
C       -8.19214450       0.87232838       3.93291535
C       -9.55011353       0.88268336       4.25244630
Br     -10.14686959      -0.16342642       5.71581160
C      -10.43281469       1.65052425       3.49446346
O      -11.77468787       1.65935718       3.78145054
H      -11.34735202       4.82584652       0.67556173
H       -9.94987405       3.91254341       0.09663536
H       -9.83828476       4.91908186       1.59340860
H       -8.22288622       2.98544508       1.26657774
H       -6.03615066       0.77442336       1.82176166
H       -4.12967127       4.88867553       4.71958286
H       -1.53801834       4.46370350       3.91736904
H       -0.12968254       3.00634915       2.47560012
H       -3.61594484       0.74170592       1.27610833
H       -7.49999130       0.27757409       4.52369192
H      -12.17440762       2.26208510       3.12505331
C       10.79895604      -2.50643550       2.41615296
O       10.88229424      -1.52446259       3.44427475
C        9.68751703      -1.13881985       4.00187010
C        8.43216158      -1.28208210       3.40782226
C        7.28441488      -0.83730314       4.07919479
C        5.96769689      -0.96305040       3.45147085
C        5.16356524      -2.02983070       3.56330106
C        5.43635858      -3.30440431       4.32271483
O        6.43530706      -3.62053901       4.93758756
N        4.28911575      -4.06701840       4.15903535
C        3.34681762      -3.41094385       3.37325005
C        2.10180051      -3.88079208       3.00736210
C        1.31533705      -3.05176849       2.20260870
C        1.79299705      -1.79299705       1.79299705
C        3.05678002      -1.33194408       2.17499919
C        3.82677587      -2.16116488       2.97155912
C        7.39436533      -0.25529465       5.34772825
C        8.64910166      -0.09894109       5.93720044
Br       8.75401265       0.70501232       7.65025446
C        9.78939188      -0.52839822       5.26001232
O       11.03389896      -0.36654482       5.81505180
H       11.81683959      -2.83981631       2.19210437
H       10.38000081      -2.07944359       1.49960841
H       10.22590388      -3.38026409       2.74460726
H        8.32289381      -1.72759503       2.42442020
H        5.66051170      -0.09013259       2.88169138
H        4.18694881      -4.98362221       4.56735864
H        1.74070380      -4.85171311       3.32667397
H        0.32786824      -3.38920113       1.89456242
H        3.41722251      -0.36003359       1.85650299
H        6.50237482       0.07514344       5.87402593
H       11.65727051      -0.74114277       5.16313276
C       -0.00445707       0.01189536      -1.78238275
H       -0.66409135       0.67374010      -2.43557963
H        0.65740317      -0.63156657      -2.45157240
C       -0.90989263      -0.90692880      -0.91072765
C        0.90977584       0.90977584      -0.90977584
C       -0.00465871       1.77757030       0.00794375
H       -0.66225468       2.44313916      -0.64384735
H        0.64322798       2.43503045       0.67728295
C       -1.78241447       0.00034974      -0.00472694
H       -2.45427497      -0.65498947       0.64260836
H       -2.43311707       0.67328779      -0.65473579
C       -0.91132561       0.90220522       0.91563759
C       -0.01476271      -0.02253852       1.78660255
H       -0.67934791      -0.69751639       2.42135241
H        0.63392994       0.61504881       2.47327442
C        0.01484550      -1.77751727      -0.01636693
H        0.67870853      -2.42144646      -0.68295456
H       -0.62264859      -2.45592969       0.64226336
C        1.78714474       0.01002794       0.00389507
H        2.44202412       0.67113390       0.66197326
H        2.45385902      -0.65136977      -0.64189061
C        0.91606151      -0.90478549       0.90901405
