149
Properties=species:S:1:pos:R:3 pbc="F F F"
C        0.00000000       0.00000000       0.00000000
C        0.88167269       0.88167269      -0.88167269
C        1.91905451       0.31002741      -1.61593719
C        2.72717344       1.11841506      -2.42475757
C        2.50361805       2.50039316      -2.50468896
C        1.45226085       3.05461529      -1.75466597
C        0.64260534       2.25138058      -0.94657217
C        3.32194767       3.37941696      -3.33701415
N        3.23891190       4.69132538      -3.46847001
C        4.22355490       4.99280945      -4.37007689
C        4.62301485       6.21907281      -4.90855131
C        5.66252476       6.22898249      -5.85231569
N        6.09951192       7.44087313      -6.41156698
C        5.25970132       8.04184425      -7.19934131
C        5.58002363       9.34467597      -7.81386711
C        4.64501176       9.90583960      -8.68937754
C        4.91707728      11.13988399      -9.28053664
Br       3.66088184      11.90129760     -10.47135120
C        6.10450686      11.81796005      -9.00386684
C        7.03355292      11.25775272      -8.12537020
C        6.77148686      10.02501422      -7.53344939
O        7.72323646       9.53775575      -6.68083208
C        6.30582267       5.03389922      -6.20967394
C        5.92521622       3.79553304      -5.67176609
C        4.87563863       3.83709195      -4.76210150
O        4.30237293       2.78988751      -4.09796694
H        2.10979848      -0.75848635      -1.56681798
H        3.53323006       0.65524478      -2.99019227
H        1.25793851       4.12598655      -1.79859474
H       -0.16388174       2.70500082      -0.37769780
H        4.13568481       7.13608048      -4.59900128
H        4.27036424       7.60593257      -7.43595456
H        3.71487396       9.39020308      -8.91178139
H        6.31671494      12.77994813      -9.46363101
H        7.96007314      11.78015397      -7.90114213
H        7.40299259       8.66767196      -6.34956919
H        7.12576407       5.06921935      -6.92499687
H        6.41344761       2.86794588      -5.94263108
C       -0.88167269      -0.88167269      -0.88167269
C       -0.53554219      -1.09482060      -2.21465633
C       -1.34373074      -1.90366720      -3.02294813
C       -2.50042883      -2.50348770      -2.50478364
C       -2.82990058      -2.27357059      -1.15807095
C       -2.02567862      -1.46752339      -0.34735608
C       -3.37031057      -3.35523062      -3.31283760
N       -4.49868858      -3.94298008      -2.95703862
C       -4.88459556      -4.61906582      -4.08277986
C       -5.99913053      -5.42688186      -4.32462658
C       -6.12898301      -6.02801281      -5.58682711
N       -7.23814899      -6.84044835      -5.87335469
C       -7.30079951      -7.96814555      -5.23194182
C       -8.43886196      -8.89068303      -5.40902172
C       -8.41115336     -10.10794017      -4.72113538
C       -9.47617280     -10.99777492      -4.86355019
Br      -9.44212130     -12.64892474      -3.94248461
C      -10.56499625     -10.68396394      -5.67737356
C      -10.59227538      -9.46580591      -6.35859456
C       -9.53204327      -8.57324624      -6.22466095
O       -9.62678919      -7.39782816      -6.91720694
C       -5.17658190      -5.78433179      -6.58848215
C       -4.05737225      -4.96822014      -6.36692295
C       -3.96228369      -4.41807535      -5.09447304
O       -2.98189793      -3.60059412      -4.60773534
H        0.35582489      -0.63811121      -2.63584379
H       -1.05882674      -2.05817844      -4.06166193
H       -3.72392374      -2.72743780      -0.73115826
H       -2.30263102      -1.30673956       0.69055370
H       -6.74083622      -5.58026296      -3.54966739
H       -6.50909404      -8.27919913      -4.52395820
H       -7.57091098     -10.36420422      -4.08174323
H      -11.39552914     -11.37662760      -5.78813734
H      -11.43786764      -9.21109535      -6.99240625
H       -8.81080922      -6.87984029      -6.72958424
H       -5.31115774      -6.24150352      -7.56731903
H       -3.31597882      -4.77593212      -7.13211363
C       -0.88167269       0.88167269       0.88167269
C       -2.19523521       1.14907487       0.50070903
C       -3.00381569       1.95711504       1.30941534
C       -2.50548082       2.50154008       2.50167926
C       -1.17765047       2.21887380       2.86501785
C       -0.36716753       1.41217870       2.06121187
C       -3.31539082       3.34809801       3.37488996
N       -2.95524818       3.94798179       4.49547730
C       -4.09276901       4.59116044       4.90251180
C       -4.33725230       5.39161101       6.02177566
C       -5.63009968       5.90712781       6.20659545
N       -5.91557922       6.72249113       7.31388169
C       -5.88632273       6.14008580       8.47447835
C       -6.12311480       6.89581307       9.71963883
C       -6.12370686       6.18975671      10.92676534
C       -6.33819820       6.87824056      12.12105915
Br      -6.34796577       5.92904159      13.75652329
C       -6.54585272       8.25780546      12.12267557
C       -6.53941372       8.96067469      10.91658744
C       -6.32929744       8.28093673       9.71971629
O       -6.33203145       9.03255762       8.57723522
C       -6.63604788       5.65145351       5.26189444
C       -6.40601604       4.85901080       4.12748850
C       -5.11794827       4.35249562       4.00438820
O       -4.62479466       3.55293769       3.01249503
H       -2.60006666       0.73805715      -0.41999371
H       -4.02654405       2.15628275       0.99584032
H       -0.76593274       2.63029281       3.78629425
H        0.65543316       1.20862784       2.36562221
H       -3.54118630       5.60395549       6.72562478
H       -5.67695479       5.05822096       8.57707563
H       -5.96053687       5.11566021      10.94066135
H       -6.71228963       8.79494228      13.05306217
H       -6.69705730      10.03617370      10.90813824
H       -6.17836699       8.41970500       7.82216176
H       -7.62435717       6.08216341       5.41345971
H       -7.17576227       4.65399652       3.39426578
C        0.88167269      -0.88167269       0.88167269
C        0.38845052      -2.09250484       1.36406376
C        1.19708302      -2.90116531       2.17209774
C        2.50121557      -2.50543699       2.50204761
C        2.97673334      -1.28000743       2.00480134
C        2.17332525      -0.46996843       1.19726441
C        3.37829646      -3.31946944       3.34061289
N        4.60307456      -3.04372540       3.75190732
C        4.95595277      -4.14203808       4.48845040
C        6.13528214      -4.43769296       5.17766386
C        6.23430102      -5.67428789       5.83523403
N        7.39902351      -6.00695208       6.54597644
C        8.46727372      -6.20063412       5.83297904
C        9.76546434      -6.51069162       6.46241075
C       10.85957671      -6.75441553       5.62623666
C       12.10137851      -7.04363832       6.19248108
Br      13.58365954      -7.38180303       5.06806808
C       12.26202923      -7.08666557       7.57763895
C       11.16919989      -6.83769845       8.40977751
C        9.92551171      -6.55141472       7.85302404
O        8.90068943      -6.31422126       8.72691360
C        5.15275233      -6.56869301       5.82795050
C        3.95789243      -6.28431046       5.15031246
C        3.92025365      -5.05956941       4.49500902
O        2.89552026      -4.53600347       3.75870365
H       -0.61973297      -2.41668272       1.12118036
H        0.79517253      -3.84271169       2.54078289
H        3.98634120      -0.94908145       2.24709715
H        2.56561843       0.47215720       0.82535566
H        6.94945000      -3.72290959       5.19840699
H        8.44896064      -6.13491011       4.72838063
H       10.74958779      -6.72145848       4.54581216
H       13.22960777      -7.31123819       8.01944812
H       11.28538309      -6.86577627       9.49020988
H        8.09409094      -6.13438936       8.19175345
H        5.24343352      -7.51107781       6.36546896
H        3.11887218      -6.96842747       5.13672493
