189
Properties=species:S:1:pos:R:3 pbc="F F F"
C        0.00000000       0.00000000       0.00000000
O        9.20576849      11.99350383      -5.69069205
C        8.88875523      10.86341528      -5.31218327
N        7.55534129      10.56009909      -5.19671151
N        7.08604725       9.36028298      -4.76213425
C        5.80159412       9.22750695      -4.88633667
C        5.08283562       8.01005902      -4.46880832
C        3.74495238       7.86031570      -4.85333275
C        3.03649630       6.72228478      -4.46582057
C        3.67192341       5.74506328      -3.69987399
C        4.99827572       5.90149063      -3.29358322
C        5.71182325       7.03301147      -3.69230724
O        2.87133054       4.67390966      -3.26520669
C        3.41047689       3.39908372      -3.23172027
O        4.48707064       3.03082038      -3.67206830
C        2.49868915       2.52303221      -2.45551748
C        3.06117296       1.45439372      -1.74469045
C        2.25266950       0.63758673      -0.95117653
C        0.88161870       0.88161870      -0.88161870
C        0.30888075       1.92787316      -1.60522425
C        1.11709212       2.75118526      -2.39418483
C        9.90064332       9.77930870      -4.95042819
O       11.13398851      10.09712718      -5.59986980
C       12.22092460       9.34722445      -5.25658314
C       13.10389967       9.05822877      -6.30092135
C       14.28943891       8.36343072      -6.05696308
C       14.60589308       7.97003514      -4.75845505
C       13.73230117       8.27633092      -3.71542662
C       12.54078894       8.96485622      -3.95552026
H        6.91689235      11.30161897      -5.46454364
H        5.18051826      10.02750646      -5.33087515
H        3.24684875       8.61716041      -5.45367797
H        1.99613492       6.60225332      -4.75500181
H        5.48568405       5.15838364      -2.66865492
H        6.74725322       7.15132019      -3.38246021
H        4.13270587       1.26666712      -1.79253407
H        2.70201326      -0.17720231      -0.38881169
H       -0.76133539       2.11385323      -1.55617797
H        0.65850314       3.56415610      -2.95205170
H        9.55481047       8.80342366      -5.30570651
H        9.98959877       9.78511405      -3.86016374
H       12.86696646       9.38383487      -7.31137844
H       14.96870323       8.14328608      -6.87639303
H       15.53669756       7.44249896      -4.56834845
H       11.90496833       9.23056826      -3.11906751
C       14.07578601       7.89807672      -2.36911985
C       14.36345456       7.58128882      -1.24158793
Br      14.82859028       7.06906958       0.58153583
O       -9.81291841      -5.46702770     -11.61001827
C       -8.79710496      -5.34594577     -10.92130305
N       -8.89633020      -4.70271257      -9.71310912
N       -7.84237961      -4.48351347      -8.88257141
C       -8.18220239      -4.00935853      -7.72387682
C       -7.19756905      -3.68977423      -6.67435967
C       -7.66460511      -3.40939517      -5.38460056
C       -6.75662973      -3.09538272      -4.37258921
C       -5.39183166      -3.06628721      -4.65874182
C       -4.92334426      -3.32118678      -5.94881853
C       -5.82979972      -3.64884659      -6.95849565
O       -4.54420599      -2.64894604      -3.61729486
C       -3.31527940      -3.26678951      -3.45921196
O       -2.89709467      -4.25779011      -4.03507456
C       -2.49800066      -2.45577111      -2.52346707
C       -1.10653453      -2.46474810      -2.68897452
C       -0.29839240      -1.67110106      -1.87193929
C       -0.88161870      -0.88161870      -0.88161870
C       -2.26390382      -0.88502492      -0.69304942
C       -3.07530314      -1.67281110      -1.51434797
C       -7.42421835      -5.86270368     -11.34345818
O       -7.62362831      -6.89303054     -12.31432664
C       -6.51194859      -7.35967890     -12.95310470
C       -6.50769362      -8.73085851     -13.22449765
C       -5.45915979      -9.30989715     -13.94077576
C       -4.41597913      -8.51225692     -14.40614722
C       -4.43225808      -7.14141425     -14.15038638
C       -5.47558437      -6.55822901     -13.42735205
H       -9.82888876      -4.39181058      -9.46235562
H       -9.24246491      -3.83451875      -7.46191621
H       -8.72685716      -3.43493022      -5.15589975
H       -7.11213123      -2.87035031      -3.37090851
H       -3.86384139      -3.26611591      -6.18276532
H       -5.46445408      -3.85502296      -7.96155658
H       -0.65005437      -3.07548737      -3.46636532
H        0.77853650      -1.67099074      -2.02116840
H       -2.71796967      -0.27445744       0.08373131
H       -4.15137942      -1.66533175      -1.35799976
H       -6.89635933      -6.28503753     -10.48254378
H       -6.87859762      -5.00620697     -11.75007197
H       -7.33267014      -9.35012499     -12.87938465
H       -5.46537455     -10.37726783     -14.14573996
H       -3.60822317      -8.96260827     -14.97671352
H       -5.48553206      -5.48388550     -13.28518654
C       -3.37039664      -6.31281465     -14.65977128
C       -2.48108768      -5.61886248     -15.08638114
Br      -1.04315032      -4.49680052     -15.77617320
O      -11.77093485       9.57530860       5.54372092
C      -11.04806251       8.58217812       5.43411316
N       -9.86973980       8.70157220       4.74083989
N       -9.00745527       7.67186109       4.52914813
C       -7.88160539       8.03624786       3.99758450
C       -6.80715351       7.08006734       3.67448211
C       -5.54811464       7.58399150       3.32649469
C       -4.51390174       6.70316225       3.00753767
C       -4.74734882       5.32846830       3.04104357
C       -6.00760702       4.82208646       3.36365609
C       -7.03891605       5.70201964       3.69620627
O       -3.68999302       4.50496636       2.61548751
C       -3.46082479       3.30796574       3.27249035
O       -3.98218459       2.90748292       4.30029182
C       -2.52501892       2.49539054       2.45682938
C       -2.63552275       1.10009761       2.52463679
C       -1.81795508       0.29285711       1.73062057
C       -0.88161870       0.88161870       0.88161870
C       -0.74726189       2.26909645       0.82561982
C       -1.56943457       3.07919966       1.61382798
C      -11.39645103       7.21563776       6.01829141
O      -12.33490908       7.41851048       7.07756593
C      -12.91170325       6.30267910       7.61034985
C      -13.13092275       6.34184435       8.99028269
C      -13.78334240       5.29054460       9.63594570
C      -14.23724857       4.20019007       8.89694463
C      -14.03409573       4.17245591       7.51750706
C      -13.37488222       5.21864790       6.86763532
H       -9.66753074       9.63003385       4.38549037
H       -7.66807942       9.09796855       3.77285191
H       -5.36033576       8.65428388       3.30306749
H       -3.53607128       7.08703856       2.73028020
H       -6.20184331       3.75318658       3.35769273
H       -8.01844937       5.30752427       3.95505999
H       -3.37092775       0.63891849       3.18206081
H       -1.92484848      -0.78810503       1.77687919
H       -0.01236517       2.72784857       0.16848206
H       -1.45568488       4.15928153       1.55974453
H      -10.50026530       6.73747699       6.42619834
H      -11.81336145       6.62201918       5.19949593
H      -12.79527697       7.20281386       9.56408894
H      -13.94807498       5.33078201      10.70952535
H      -14.75843170       3.38976429       9.39934897
H      -13.27375031       5.19191284       5.78894096
C      -14.53238506       3.06058075       6.75001675
C      -14.94970238       2.12938531       6.10724362
Br     -15.62446918       0.62372103       5.06793382
O        5.32397358     -10.98745765      10.57853314
C        5.14885181     -10.41533588       9.50016610
N        4.67454482      -9.12760018       9.51000689
N        4.41472089      -8.40719792       8.38654567
C        4.13356854      -7.16238184       8.61948737
C        3.81070842      -6.20464438       7.54635015
C        3.75316093      -4.84213207       7.86330784
C        3.44174284      -3.91285578       6.87000304
C        3.19272102      -4.35375262       5.57038704
C        3.22497629      -5.71327609       5.25509719
C        3.54988732      -6.64230026       6.24495438
O        2.79144692      -3.37420906       4.64479091
C        3.25035577      -3.45020786       3.34071724
O        4.09888858      -4.20174837       2.88932238
C        2.45342240      -2.51728462       2.50653182
C        2.25265357      -2.84792692       1.15967665
C        1.45983091      -2.03301631       0.34858553
C        0.88161870      -0.88161870       0.88161870
C        1.09607508      -0.53108615       2.21481693
C        1.88306784      -1.34899981       3.03039456
C        5.41922369     -11.06539044       8.14576607
O        6.34334847     -12.13676781       8.35086922
C        6.57412202     -12.96172738       7.28888279
C        7.88943918     -13.41612852       7.15748209
C        8.23006578     -14.32506584       6.15470109
C        7.24766338     -14.79886648       5.28785341
C        5.93244514     -14.35844360       5.43316997
C        5.58783981     -13.44292048       6.43040515
H        4.52602653      -8.72691482      10.43011361
H        4.13761138      -6.75393675       9.64735174
H        3.95053790      -4.49348388       8.87366534
H        3.38890718      -2.85454380       7.10993906
H        2.99830073      -6.06272564       4.25169625
H        3.58267227      -7.70057693       5.99778442
H        2.69788110      -3.75037333       0.74365263
H        1.29497320      -2.30873832      -0.69008888
H        0.65061415       0.37044771       2.62852937
H        2.04119834      -1.06534399       4.06816861
H        5.86566488     -10.33959932       7.45867644
H        4.45383916     -11.41378823       7.76724917
H        8.65226759     -13.06239634       7.84751584
H        9.25600483     -14.67145307       6.06092444
H        7.51203082     -15.51812291       4.51739123
H        4.54972648     -13.15540198       6.54947564
C        4.91177827     -14.87354168       4.55766263
C        4.05696976     -15.30493632       3.82442523
Br       2.67481671     -16.00246496       2.63884236
