170
Properties=species:S:1:pos:R:3 pbc="F F F"
C        1.79180273       1.79180273      -1.79180273
C        1.24495326       2.90644744      -2.42220892
C        2.05302481       3.70867527      -3.22675356
C        3.40465930       3.39424316      -3.39832870
C        3.96429657       2.27399368      -2.76548422
C        3.13903907       1.47443963      -1.95834633
C        5.37308596       1.91780831      -2.91179022
O        6.13642478       2.69456957      -3.75071891
C        7.37895375       2.13362766      -3.67734710
C        8.53470732       2.53820259      -4.33203954
C        9.67998601       1.77087524      -4.06526070
C        9.64899725       0.66598764      -3.19940689
N       10.83455460      -0.04451601      -2.94743817
C       10.85115453      -1.28810980      -3.31922226
C       12.01808008      -2.15480651      -3.05568361
C       11.96294876      -3.46934667      -3.53086273
C       13.03470794      -4.32813391      -3.29510422
Br      12.96493253      -6.10421204      -3.94043881
C       14.15566899      -3.89404776      -2.58929174
C       14.20676227      -2.58052607      -2.11150501
I       15.91456414      -1.99267866      -1.05174479
C       13.14001842      -1.70398796      -2.34204553
O       13.21043328      -0.42283803      -1.85962573
C        8.45750129       0.31144850      -2.54685125
C        7.30573929       1.05929333      -2.80765550
N        6.02914366       0.92763728      -2.33272642
H        0.19536951       3.15752728      -2.29219990
H        1.63156284       4.58133554      -3.71994160
H        4.01702953       4.03617557      -4.02879533
H        3.55718557       0.60176610      -1.45893122
H        8.55053894       3.39258832      -4.99704567
H       10.62164754       2.04367133      -4.53977803
H        9.98992457      -1.75037355      -3.83787295
H       11.09413542      -3.82448219      -4.07944557
H       14.98260963      -4.57772880      -2.41264534
H       12.38378585       0.04713411      -2.11370632
H        8.42086049      -0.51756718      -1.85084495
C       -1.79180273      -1.79180273      -1.79180273
C       -1.34225779      -3.05114374      -2.18020810
C       -2.14990655      -3.85295565      -2.98559143
C       -3.40391148      -3.39349516      -3.39982452
C       -3.86545507      -2.12661507      -3.01170434
C       -3.04171504      -1.32928544      -2.20082456
C       -5.17244249      -1.61491682      -3.41532517
O       -5.92789361      -2.40286275      -4.25095690
C       -7.06979745      -1.67909322      -4.44103783
C       -8.17746477      -2.02297671      -5.20450796
C       -9.21819841      -1.08046347      -5.21746007
C       -9.13402443       0.12915681      -4.50952416
N      -10.22088756       1.01904265      -4.53563184
C       -9.99985573       2.18320852      -5.06561979
C      -11.04630976       3.22542344      -5.09807086
C      -10.73067802       4.43400751      -5.72779431
C      -11.68145067       5.45177107      -5.77199864
Br     -11.25918118       7.08480722      -6.62678533
C      -12.93808924       5.28062218      -5.19344591
C      -13.24995287       4.07290109      -4.56068943
I      -15.15128070       3.88179242      -3.70414200
C      -12.30746914       3.03919637      -4.50980322
O      -12.63396349       1.86642807      -3.87968557
C       -7.99864409       0.41900511      -3.73616205
C       -6.94939006      -0.50436671      -3.71893134
N       -5.74110512      -0.47096869      -3.07743354
H       -0.36911103      -3.41519063      -1.86079503
H       -1.80453652      -4.83796938      -3.29033407
H       -4.01838710      -4.03757011      -4.02604322
H       -3.38465230      -0.34375008      -1.88948051
H       -8.23518443      -2.95872919      -5.74625932
H      -10.11979797      -1.29603733      -5.78926161
H       -9.01797012       2.44442426      -5.50387811
H       -9.75367160       4.58473831      -6.18016550
H      -13.66779701       6.08574027      -5.23546943
H      -11.86198660       1.25898054      -3.94162022
H       -7.92845241       1.33187000      -3.15755586
C       -1.79180273       1.79180273       1.79180273
C       -3.16683756       1.83092687       1.57584519
C       -3.96838946       2.63747733       2.38258685
C       -3.39302113       3.40190927       3.40230076
C       -2.00864135       3.36715615       3.62797698
C       -1.21307933       2.55088222       2.80786348
C       -1.37119384       4.14300221       4.68848844
O       -2.17589084       4.96920675       5.43661567
C       -1.31743451       5.54221874       6.33027526
C       -1.61647671       6.46048483       7.32798790
C       -0.52717056       6.88119270       8.10775869
C        0.77492855       6.40640548       7.88291485
N        1.81935723       6.84050861       8.71632537
C        2.77253477       7.51065198       8.14414979
C        3.95385114       7.96956749       8.90324083
C        4.90960795       8.72183076       8.21224202
C        6.04734889       9.16584145       8.88318568
Br       7.33865204      10.18698817       7.95282316
C        6.24478550       8.86564386      10.23005461
C        5.28985113       8.10978367      10.91780867
I        5.64921856       7.68600352      12.93684532
C        4.13989153       7.65833883      10.25962869
O        3.22047619       6.91471769      10.95297949
C        1.01944365       5.46250410       6.87274057
C       -0.05214229       5.03927876       6.08126706
N       -0.09617540       4.15804840       5.03528357
H       -3.62097083       1.23828808       0.78583778
H       -5.04296469       2.67039835       2.21947693
H       -4.03847241       4.02219827       4.02132975
H       -0.13695546       2.51119054       2.96973688
H       -2.62378784       6.82045489       7.49593020
H       -0.69779302       7.59292596       8.91437793
H        2.74335084       7.75536019       7.06541462
H        4.77242650       8.96091179       7.16061351
H        7.13911064       9.21855772      10.73807909
H        2.48396515       6.68788090      10.34071052
H        2.01092270       5.06026093       6.70480004
C        1.79180273      -1.79180273       1.79180273
C        3.15803122      -1.87836517       1.53721323
C        3.95959320      -2.68476033       2.34410011
C        3.39304061      -3.40163162       3.40255893
C        2.01763933      -3.31887379       3.66726136
C        1.22194423      -2.50333198       2.84654881
C        1.38995187      -4.04410298       4.76862963
O        2.19232870      -4.87193407       5.51745049
C        1.34472618      -5.39273822       6.45246411
C        1.64668831      -6.29014379       7.46811734
C        0.56945526      -6.65517357       8.29149313
C       -0.72443494      -6.14833339       8.09049334
N       -1.75561240      -6.52653102       8.96655813
C       -2.74459001      -7.18417752       8.44267949
C       -3.91548380      -7.58522675       9.24921423
C       -4.91298640      -8.32830020       8.60915103
C       -6.04254985      -8.71832672       9.32590138
Br      -7.39029707      -9.72695909       8.46449727
C       -6.19073553      -8.37330326      10.66834524
C       -5.19404725      -7.62670577      11.30508269
I       -5.48029233      -7.13380692      13.32011569
C       -4.05167721      -7.22924639      10.60050682
O       -3.09066529      -6.49365047      11.24423581
C       -0.97154525      -5.22731077       7.06003551
C        0.08770570      -4.85957526       6.22540716
N        0.12599649      -4.01085442       5.15265644
H        3.60533917      -1.32282451       0.71693301
H        5.02738765      -2.75458726       2.15086506
H        4.03843220      -4.02271105       4.02085718
H        0.15276237      -2.42672987       3.03839064
H        2.64768244      -6.67509104       7.61739945
H        0.74339204      -7.34793726       9.11376760
H       -2.75486402      -7.46092114       7.37136685
H       -4.81438138      -8.60186841       7.56161177
H       -7.07932646      -8.68434274      11.21250989
H       -2.36654057      -6.30688245      10.60428439
H       -1.95549155      -4.80060149       6.90902833
C       -0.00445707       0.01189536      -1.78238275
H       -0.66409135       0.67374010      -2.43557963
H        0.65740317      -0.63156657      -2.45157240
C       -0.90989263      -0.90692880      -0.91072765
C        0.90977584       0.90977584      -0.90977584
C       -0.00465871       1.77757030       0.00794375
H       -0.66225468       2.44313916      -0.64384735
H        0.64322798       2.43503045       0.67728295
C       -1.78241447       0.00034974      -0.00472694
H       -2.45427497      -0.65498947       0.64260836
H       -2.43311707       0.67328779      -0.65473579
C       -0.91132561       0.90220522       0.91563759
C       -0.01476271      -0.02253852       1.78660255
H       -0.67934791      -0.69751639       2.42135241
H        0.63392994       0.61504881       2.47327442
C        0.01484550      -1.77751727      -0.01636693
H        0.67870853      -2.42144646      -0.68295456
H       -0.62264859      -2.45592969       0.64226336
C        1.78714474       0.01002794       0.00389507
H        2.44202412       0.67113390       0.66197326
H        2.45385902      -0.65136977      -0.64189061
C        0.91606151      -0.90478549       0.90901405
