198
Properties=species:S:1:pos:R:3 pbc="F F F"
C        1.79206104       1.79206104      -1.79206104
C        1.96434687       3.13678730      -1.46994811
C        2.76352104       3.94635595      -2.28577207
C        2.93882387       5.37619593      -1.95414287
N        2.55210576       5.86254153      -0.81622582
C        2.76104852       7.23068668      -0.57487833
C        1.71152658       7.97641500      -0.03971904
C        1.87532951       9.33413407       0.24879048
C        3.10321625       9.96984567       0.02732368
N        3.26413116      11.34028410       0.30798503
C        3.13823252      11.69792143       1.54900095
C        3.30156606      13.10826730       1.96044059
C        3.04492284      13.42472663       3.29871477
C        3.19683614      14.74049587       3.73287572
C        3.60562683      15.74078799       2.85217675
C        3.86262275      15.42197303       1.51484120
I        4.47992466      16.96778679       0.24392430
C        3.70875597      14.10664656       1.06087866
O        3.96547145      13.81790084      -0.25460814
C        4.16631659       9.23319321      -0.52072969
C        5.47969552       9.89306728      -0.83379616
C        3.98920340       7.86546087      -0.79830818
C        3.39184690       3.40473848      -3.41351550
O        4.18148277       4.21210561      -4.18921362
C        3.21552628       2.05006432      -3.72132757
I        4.13888085       1.18609455      -5.38657334
C        2.41285825       1.24137669      -2.91319594
H        1.47709452       3.55981279      -0.59403791
H        3.41547893       6.01056137      -2.72355518
H        0.75654406       7.49442284       0.15098699
H        1.03548554       9.89712593       0.64591802
H        2.90831440      10.96571771       2.34608723
H        2.72693342      12.65583368       3.99825846
H        3.72279464      16.76159879       3.20831475
H        3.76417300      12.86523548      -0.40295322
H        6.21666810       9.16840967      -1.19606844
H        5.89555613      10.36628011       0.06099061
H        5.34366248      10.64752403      -1.61570784
H        4.82062771       7.28752792      -1.19403822
H        4.54967234       3.67015861      -4.91172295
H        2.26887543       0.18950519      -3.14849050
C        2.92921776      15.06948236       5.10901099
C        2.70508737      15.34500855       6.26152429
Br       2.34268748      15.79051109       8.12504080
C       -1.79206104      -1.79206104      -1.79206104
C       -1.78074180      -3.17431026      -1.61603022
C       -2.58079496      -3.98197485      -2.43287925
C       -2.56226852      -5.44961657      -2.25727759
N       -1.99317599      -6.00463787      -1.23305925
C       -2.02517842      -7.40578528      -1.13564981
C       -0.84604646      -8.07376507      -0.80784910
C       -0.82897647      -9.46425575      -0.66744087
C       -1.99988944     -10.21459653      -0.83125227
N       -1.97955126     -11.61646448      -0.70041450
C       -1.66932920     -12.08647903       0.46865523
C       -1.63154821     -13.54193771       0.72409315
C       -1.18504773     -13.96606326       1.98017629
C       -1.14334275     -15.32921476       2.26810122
C       -1.54547438     -16.27172817       1.32296448
C       -1.99246167     -15.84541908       0.06812616
I       -2.58892194     -17.30980389      -1.30506131
C       -2.03455117     -14.48036608      -0.23960662
O       -2.47545996     -14.08603021      -1.47649026
C       -3.19299707      -9.55582320      -1.17141923
C       -4.45665214     -10.33046437      -1.41944245
C       -3.19668974      -8.15502389      -1.30125882
C       -3.39305848      -3.40226865      -3.41477374
O       -4.17914761      -4.21089032      -4.19276407
C       -3.39974822      -2.01123919      -3.57593076
I       -4.60159351      -1.09132183      -5.01863340
C       -2.59706917      -1.20320986      -2.76715186
H       -1.15036613      -3.62697978      -0.85359930
H       -3.05704367      -6.05082433      -3.04172747
H        0.06814705      -7.50442433      -0.66370264
H        0.10728580      -9.96215643      -0.43182282
H       -1.42522930     -11.42103884       1.31832325
H       -0.86953433     -13.24353531       2.72856100
H       -1.51013588     -17.33126995       1.56532715
H       -2.39573586     -13.10582945      -1.53079637
H       -5.30440176      -9.66441973      -1.61232471
H       -4.71020740     -10.94231960      -0.54831864
H       -4.33532437     -10.97587060      -2.29569938
H       -4.12606279      -7.64151908      -1.53461198
H       -4.68635298      -3.64294909      -4.80225183
H       -2.59483761      -0.12266120      -2.88937232
C       -0.68016346     -15.76842487       3.55889920
C       -0.29225080     -16.13626334       4.63994251
Br       0.33497115     -16.73102702       6.38789810
C       -1.79206104       1.79206104       1.79206104
C       -3.09202021       2.09046923       1.38859284
C       -3.89494621       2.90835770       2.19234514
C       -5.27032610       3.23709099       1.76174558
N       -5.83708020       2.62383797       0.76995494
C       -7.14952334       2.98971003       0.42738015
C       -7.44916431       3.19695021      -0.91845389
C       -8.74610957       3.53197121      -1.31740769
C       -9.77744036       3.64527982      -0.37698194
N      -11.08136660       3.99357958      -0.77851594
C      -11.69112763       3.15737270      -1.56134733
C      -13.06838842       3.41391684      -2.03291249
C      -13.61239234       2.51621215      -2.95766979
C      -14.91202027       2.71360038      -3.42116435
C      -15.67552666       3.78948760      -2.97077619
C      -15.12999312       4.68521789      -2.04545642
I      -16.32999518       6.27677529      -1.40298332
C      -13.82395624       4.50517955      -1.57461192
O      -13.30993746       5.39655692      -0.66851395
C       -9.48781419       3.44897279       0.98345251
C      -10.55151522       3.62464982       2.03039392
C       -8.17961041       3.10414975       1.36921229
C       -3.39619748       3.41590948       3.39799393
O       -4.20480610       4.20204767       4.17594822
C       -2.09030514       3.10215580       3.79445722
I       -1.29808268       3.82337662       5.59008944
C       -1.28422354       2.29214581       2.99106154
H       -3.48171666       1.69711478       0.45211377
H       -5.79198703       4.03126853       2.32633992
H       -6.66293253       3.09910211      -1.66205473
H       -8.94841069       3.70830145      -2.37001868
H      -11.20941905       2.22173451      -1.90320867
H      -13.03048051       1.67144074      -3.31741260
H      -16.68922881       3.92668262      -3.33983275
H      -12.37622010       5.14187624      -0.48573466
H      -10.17695805       3.37528425       3.02890390
H      -11.40455369       2.97042748       1.82586447
H      -10.88788035       4.66650649       2.05250750
H       -7.96134858       2.92227244       2.41857283
H       -3.70636176       4.44767719       4.97751495
H       -0.26807621       2.04751725       3.29127766
C      -15.47269481       1.79324714      -4.37625282
C      -15.94225974       1.02245131      -5.17613942
Br     -16.70150651      -0.22386036      -6.46948838
C        1.79206104      -1.79206104       1.79206104
C        2.99308781      -2.28861898       1.28937548
C        3.79449183      -3.10621745       2.09493978
C        5.06333471      -3.64482618       1.56100179
N        5.56816277      -3.21640056       0.44630978
C        6.78160930      -3.77443603       0.01056818
C        6.89078207      -4.16136468      -1.32448613
C        8.08541471      -4.69318827      -1.81792989
C        9.20522843      -4.82865069      -0.98814088
N       10.40499410      -5.37470559      -1.48326945
C       11.00189248      -4.70889071      -2.42363019
C       12.27542858      -5.18094901      -3.00698483
C       12.79682732      -4.46183974      -4.08773237
C       14.00116909      -4.86520017      -4.66191296
C       14.69264679      -5.97086114      -4.16926986
C       14.17002157      -6.68777508      -3.08804206
I       15.25962885      -8.33455205      -2.39039375
C       12.95837064      -6.29995419      -2.50380096
O       12.46496813      -7.01849795      -1.44548564
C        9.10652959      -4.45214558       0.36156432
C       10.26449434      -4.64153362       1.30053100
C        7.90024465      -3.91071036       0.84201744
C        3.39427861      -3.41545065       3.40037163
O        4.20158913      -4.20521424       4.17599862
C        2.18820884      -2.90378951       3.89491982
I        1.54716527      -3.32408903       5.84029443
C        1.38288053      -2.09354084       3.09100952
H        3.30612101      -2.04957511       0.27524909
H        5.56067246      -4.43069776       2.15822526
H        6.03508971      -4.04967365      -1.98478344
H        8.13763055      -5.00596092      -2.85689802
H       10.58645169      -3.76416570      -2.82267251
H       12.27049214      -3.59649473      -4.48247823
H       15.63292672      -6.26975483      -4.62660287
H       11.59364649      -6.63363933      -1.19492414
H       10.04365832      -4.24158292       2.29590497
H       11.15213761      -4.12219096       0.92651707
H       10.48606003      -5.70802197       1.41281235
H        7.83248739      -3.59087274       1.87883371
H        3.78084714      -4.29989273       5.05081404
H        0.44345158      -1.69582027       3.46759927
C       14.53777577      -4.12906629      -5.77715293
C       14.98718387      -3.51255416      -6.71116640
Br      15.71383875      -2.51570620      -8.22138718
C       -0.00445707       0.01189536      -1.78238275
H       -0.66409135       0.67374010      -2.43557963
H        0.65740317      -0.63156657      -2.45157240
C       -0.90989263      -0.90692880      -0.91072765
C        0.90977584       0.90977584      -0.90977584
C       -0.00465871       1.77757030       0.00794375
H       -0.66225468       2.44313916      -0.64384735
H        0.64322798       2.43503045       0.67728295
C       -1.78241447       0.00034974      -0.00472694
H       -2.45427497      -0.65498947       0.64260836
H       -2.43311707       0.67328779      -0.65473579
C       -0.91132561       0.90220522       0.91563759
C       -0.01476271      -0.02253852       1.78660255
H       -0.67934791      -0.69751639       2.42135241
H        0.63392994       0.61504881       2.47327442
C        0.01484550      -1.77751727      -0.01636693
H        0.67870853      -2.42144646      -0.68295456
H       -0.62264859      -2.45592969       0.64226336
C        1.78714474       0.01002794       0.00389507
H        2.44202412       0.67113390       0.66197326
H        2.45385902      -0.65136977      -0.64189061
C        0.91606151      -0.90478549       0.90901405
