190
Properties=species:S:1:pos:R:3 pbc="F F F"
C        1.79206104       1.79206104      -1.79206104
C        1.96434687       3.13678730      -1.46994811
C        2.76352104       3.94635595      -2.28577207
C        2.93882387       5.37619593      -1.95414287
N        2.55210576       5.86254153      -0.81622582
C        2.76104852       7.23068668      -0.57487833
C        1.71152658       7.97641500      -0.03971904
C        1.87532951       9.33413407       0.24879048
C        3.10321625       9.96984567       0.02732368
N        3.26413116      11.34028410       0.30798503
C        3.13823252      11.69792143       1.54900095
C        3.30156606      13.10826730       1.96044059
C        3.04492284      13.42472663       3.29871477
C        3.19683614      14.74049587       3.73287572
Br       2.84539455      15.17252725       5.54004298
C        3.60562683      15.74078799       2.85217675
C        3.86262275      15.42197303       1.51484120
I        4.47992466      16.96778679       0.24392430
C        3.70875597      14.10664656       1.06087866
O        3.96547145      13.81790084      -0.25460814
C        4.16631659       9.23319321      -0.52072969
C        5.47969552       9.89306728      -0.83379616
C        3.98920340       7.86546087      -0.79830818
C        3.39184690       3.40473848      -3.41351550
O        4.18148277       4.21210561      -4.18921362
C        3.21552628       2.05006432      -3.72132757
I        4.13888085       1.18609455      -5.38657334
C        2.41285825       1.24137669      -2.91319594
H        1.47709452       3.55981279      -0.59403791
H        3.41547893       6.01056137      -2.72355518
H        0.75654406       7.49442284       0.15098699
H        1.03548554       9.89712593       0.64591802
H        2.90831440      10.96571771       2.34608723
H        2.72693342      12.65583368       3.99825846
H        3.72279464      16.76159879       3.20831475
H        3.76417300      12.86523548      -0.40295322
H        6.21666810       9.16840967      -1.19606844
H        5.89555613      10.36628011       0.06099061
H        5.34366248      10.64752403      -1.61570784
H        4.82062771       7.28752792      -1.19403822
H        4.54967234       3.67015861      -4.91172295
H        2.26887543       0.18950519      -3.14849050
C       -1.79206104      -1.79206104      -1.79206104
C       -2.66879193      -1.20199389      -2.70029646
C       -3.48467902      -2.01146066      -3.49950938
C       -4.42474501      -1.38893366      -4.45548400
N       -4.37196565      -0.12399422      -4.73491324
C       -5.29657304       0.38957515      -5.65961563
C       -5.95843948       1.57570603      -5.34492718
C       -6.86504297       2.14675930      -6.24238942
C       -7.11198714       1.55216518      -7.48591627
N       -8.03369859       2.12221552      -8.38494715
C       -7.74483742       3.30124435      -8.84355992
C       -8.63307106       3.98841881      -9.80474052
C       -8.30274191       5.29866461     -10.16685741
C       -9.10651644       5.98077813     -11.07871799
Br      -8.66575877       7.75397167     -11.56609172
C      -10.22969154       5.37181408     -11.63636061
C      -10.55753510       4.06142728     -11.27364676
I      -12.25286528       3.20056681     -12.15148868
C       -9.76457664       3.36436941     -10.35431664
O      -10.10601019       2.08110735     -10.01307760
C       -6.45970835       0.35162222      -7.81215336
C       -6.74546440      -0.35232765      -9.10876690
C       -5.54365152      -0.20703293      -6.90228800
C       -3.41308194      -3.40543819      -3.39158075
O       -4.21015605      -4.17830698      -4.19433897
C       -2.52241337      -3.98497130      -2.47953350
I       -2.36600863      -6.06093194      -2.28460816
C       -1.71214619      -3.17973022      -1.67555448
H       -2.72607460      -0.11895547      -2.78591515
H       -5.17495277      -2.05429300      -4.92034971
H       -5.76726855       2.05694791      -4.38965927
H       -7.38280180       3.06028678      -5.96417844
H       -6.82545363       3.83607421      -8.53856547
H       -7.42931711       5.78693384      -9.74212537
H      -10.84388853       5.91701020     -12.34920035
H       -9.46958895       1.76725188      -9.33002462
H       -6.11101957      -1.23625464      -9.23387200
H       -6.55554656       0.31203534      -9.95733441
H       -7.78818501      -0.68586937      -9.13283997
H       -5.01568088      -1.11984461      -7.16666835
H       -4.01683599      -5.11440128      -4.00031664
H       -1.02089682      -3.62319201      -0.96278230
C       -1.79206104       1.79206104       1.79206104
C       -3.08377027       1.37723478       2.11007723
C       -3.89475409       2.19208064       2.90881433
C       -5.26984424       1.76108218       3.23823626
N       -5.68237796       0.55696917       2.99152598
C       -7.00155784       0.22366918       3.34138650
C       -7.78006205      -0.46289161       2.41049019
C       -9.08837690      -0.84619236       2.71848855
C       -9.63827804      -0.56857316       3.97603335
N      -10.96015870      -0.94538848       4.28166001
C      -11.21425741      -2.21787669       4.29077228
C      -12.56382863      -2.72756338       4.61312752
C      -12.77908587      -4.10492149       4.49677031
C      -14.03368484      -4.63040951       4.80118096
Br     -14.32942196      -6.49117765       4.63963451
C      -15.07188360      -3.80183962       5.22419409
C      -14.85417509      -2.42518791       5.34076740
I      -16.45168027      -1.23545380       5.98756068
C      -13.60195104      -1.88025679       5.03282962
O      -13.41215328      -0.52778869       5.15361585
C       -8.86882179       0.13125694       4.92016077
C       -9.44388809       0.50547223       6.25719864
C       -7.55068243       0.50333795       4.59895207
C       -3.40658496       3.41229486       3.39122106
O       -4.21257121       4.18663880       4.18359199
C       -2.10405157       3.81338257       3.06948404
I       -1.31984638       5.62005254       3.77164982
C       -1.29491891       3.00578636       2.26672561
H       -3.46520255       0.42937803       1.73636463
H       -5.92927906       2.51535623       3.70496019
H       -7.36306156      -0.69815460       1.43507296
H       -9.68063600      -1.36193010       1.96798755
H      -10.43494653      -2.96946094       4.06245930
H      -11.97934108      -4.76456504       4.16973260
H      -16.04356336      -4.22875035       5.46126566
H      -12.49640456      -0.32027113       4.85622826
H       -8.69649605       0.99068315       6.89396701
H       -9.79920050      -0.38429979       6.78594493
H      -10.27401065       1.20736459       6.12551911
H       -6.94416006       1.01816218       5.33987160
H       -3.70913861       4.98133797       4.44107732
H       -0.28378210       3.31290069       2.01018833
C        1.79206104      -1.79206104       1.79206104
C        2.36073829      -2.94845638       1.26188761
C        3.15921849      -3.76169184       2.07473873
C        3.75425003      -4.99561715       1.51929549
N        3.73934560      -5.24453534       0.24699217
C        4.33249582      -6.43625092      -0.20213322
C        3.63555301      -7.21618353      -1.12407591
C        4.19277560      -8.39509785      -1.62720036
C        5.47177882      -8.80722503      -1.23326561
N        6.02792523     -10.00074551      -1.73224051
C        6.24782144     -10.04951670      -3.01018513
C        6.84254809     -11.24713882      -3.64029414
C        6.94772471     -11.25842368      -5.03521369
C        7.51219373     -12.36306250      -5.67079994
Br       7.65079588     -12.38371917      -7.55663623
C        7.97664164     -13.45135845      -4.93376202
C        7.87138892     -13.43753560      -3.53916994
I        8.59349889     -15.09937816      -2.48908991
C        7.30122167     -12.33873073      -2.88542853
O        7.20770423     -12.34787678      -1.51760058
C        6.18129457      -8.03643619      -0.29749127
C        7.52900737      -8.47756526       0.19998633
C        5.61112220      -6.84793539       0.19391486
C        3.39078233      -3.40954473       3.40977382
O        4.18770564      -4.21242443       4.18267193
C        2.81862404      -2.24091397       3.92738017
I        3.14006025      -1.66105250       5.91043599
C        2.01552186      -1.43116301       3.12074602
H        2.18220471      -3.22404245       0.22469805
H        4.21234487      -5.69580135       2.24144925
H        2.64766220      -6.90273224      -1.45041452
H        3.62028196      -8.99516563      -2.32875414
H        6.00394153      -9.20035405      -3.67635069
H        6.59167273     -10.41690969      -5.62407378
H        8.41778110     -14.30360879      -5.44531122
H        6.74581197     -11.52422783      -1.23767812
H        7.97010366      -7.73624267       0.87479988
H        8.22165264      -8.61516310      -0.63597010
H        7.43524854      -9.41715632       0.75448949
H        6.17213656      -6.23505802       0.89499927
H        4.25408262      -3.80919697       5.06827430
H        1.56530329      -0.52422274       3.51734510
C       -0.00445707       0.01189536      -1.78238275
H       -0.66409135       0.67374010      -2.43557963
H        0.65740317      -0.63156657      -2.45157240
C       -0.90989263      -0.90692880      -0.91072765
C        0.90977584       0.90977584      -0.90977584
C       -0.00465871       1.77757030       0.00794375
H       -0.66225468       2.44313916      -0.64384735
H        0.64322798       2.43503045       0.67728295
C       -1.78241447       0.00034974      -0.00472694
H       -2.45427497      -0.65498947       0.64260836
H       -2.43311707       0.67328779      -0.65473579
C       -0.91132561       0.90220522       0.91563759
C       -0.01476271      -0.02253852       1.78660255
H       -0.67934791      -0.69751639       2.42135241
H        0.63392994       0.61504881       2.47327442
C        0.01484550      -1.77751727      -0.01636693
H        0.67870853      -2.42144646      -0.68295456
H       -0.62264859      -2.45592969       0.64226336
C        1.78714474       0.01002794       0.00389507
H        2.44202412       0.67113390       0.66197326
H        2.45385902      -0.65136977      -0.64189061
C        0.91606151      -0.90478549       0.90901405
