149
Properties=species:S:1:pos:R:3 pbc="F F F"
C        0.00000000       0.00000000       0.00000000
O        4.65690208       4.66760922      -7.51808689
C        3.94909111       3.91736141      -6.84416795
N        3.98020113       4.00972444      -5.47154218
N        3.22702505       3.22217125      -4.66159478
C        3.37052208       3.33572357      -3.37083884
C        4.37204485       4.26345966      -2.71071279
C        2.50580588       2.49387364      -2.48727445
C        2.10726065       2.93699192      -1.21998322
C        1.29872719       2.12752594      -0.41571583
C        0.88157678       0.88157678      -0.88157678
C        1.25866331       0.43815559      -2.14748002
C        2.06793465       1.24560813      -2.95157280
C        3.02548461       2.85746568      -7.45408754
O        3.49980787       2.29964060      -8.67354304
C        4.51961845       1.38596967      -8.62347378
C        5.12048394       0.92566389      -7.44572861
C        6.15846996      -0.01123374      -7.49685782
C        6.60026232      -0.49619464      -8.72450680
Cl       7.87394127      -1.65112658      -8.77643145
C        6.01582959      -0.05471861      -9.90634857
C        4.97989916       0.88306103      -9.85317660
H        4.59126777       4.72646821      -5.09709927
H        5.35625775       4.13181848      -3.17093174
H        4.49454226       4.05381488      -1.64597937
H        4.04546814       5.29927361      -2.83733036
H        2.39602204       3.91514504      -0.84534523
H        0.99515929       2.48013145       0.56720414
H        0.92898633      -0.52942010      -2.51778478
H        2.35495507       0.89137240      -3.93931734
H        2.08995932       3.37794642      -7.69193176
H        2.75550324       2.06104567      -6.75380448
H        4.81130032       1.27160652      -6.46474313
H        6.61650958      -0.35580461      -6.57298864
H        6.36451666      -0.43728954     -10.86156597
C        4.40317709       1.30824748     -11.10225952
C        3.92017236       1.66434113     -12.14836647
Br       3.13919456       2.24011444     -13.83983292
O       -6.75674006      -6.36185666      -3.72400148
C       -6.04838694      -5.68823624      -2.97399730
N       -5.08900038      -4.86100593      -3.51146145
N       -4.27375909      -4.08523339      -2.75179861
C       -3.34997491      -3.38215269      -3.34495689
C       -3.09165864      -3.41572968      -4.83882897
C       -2.48512198      -2.49866358      -2.50316840
C       -1.95351633      -1.30463920      -3.00608027
C       -1.14754739      -0.49895970      -2.19546187
C       -0.88157678      -0.88157678      -0.88157678
C       -1.41904146      -2.05917127      -0.36608619
C       -2.22343776      -2.86594839      -1.17572943
C       -6.16543501      -5.72514197      -1.44646087
O       -6.56863155      -6.98376184      -0.92059811
C       -5.65111922      -8.00043742      -0.87750525
C       -4.31697957      -7.88816086      -1.28673601
C       -3.45366607      -8.98619942      -1.20422856
C       -3.91706223     -10.20195273      -0.70955952
Cl      -2.84664380     -11.54460376      -0.60799858
C       -5.23755263     -10.33488990      -0.29501702
C       -6.09922231      -9.23684559      -0.38006889
H       -5.04210085      -4.84885782      -4.52387659
H       -3.02618016      -4.45393842      -5.17888939
H       -2.14716504      -2.93851172      -5.10865975
H       -3.91018358      -2.91182186      -5.36006665
H       -2.16853859      -0.97060406      -4.01736966
H       -0.73873288       0.42600850      -2.59536222
H       -1.22061743      -2.35720444       0.66047086
H       -2.64024951      -3.78222615      -0.76316916
H       -6.95784208      -5.01153771      -1.19045771
H       -5.26626674      -5.37130702      -0.93277963
H       -3.90744833      -6.96242962      -1.67777201
H       -2.42134781      -8.88296347      -1.52938233
H       -5.59337016     -11.28618107       0.09075814
C       -7.45664901      -9.42093144       0.06389636
C       -8.59349388      -9.57510334       0.43571726
Br     -10.43167587      -9.82438627       1.03692021
O       -6.70615555       6.41890381       3.71753884
C       -5.99635424       5.74605245       2.96821379
N       -5.06311169       4.89068824       3.50766783
N       -4.24819262       4.11385868       2.74873979
C       -3.34927517       3.38223530       3.34557401
C       -3.11898838       3.38282997       4.84439893
C       -2.48521299       2.49832011       2.50342087
C       -1.98581947       1.28512211       2.99329422
C       -1.17975619       0.47952975       2.18268301
C       -0.88157678       0.88157678       0.88157678
C       -1.38689497       2.07869884       0.37870511
C       -2.19134693       2.88537665       1.18839200
C       -6.08345727       5.81384544       1.43973513
O       -6.45283683       7.08959086       0.93056381
C       -5.51575318       8.08916484       0.92414387
C       -4.19202471       7.94373761       1.35611412
C       -3.30684006       9.02642135       1.31083264
C       -3.73779847      10.25988147       0.83089455
Cl      -2.64062904      11.58348699       0.77513012
C       -5.04739335      10.42580054       0.39426567
C       -5.93098354       9.34303187       0.44212138
H       -5.03581698       4.85865099       4.52036728
H       -3.04055562       4.41303314       5.20541921
H       -2.18894806       2.88265907       5.12272939
H       -3.95664215       2.88497504       5.34045492
H       -2.22637082       0.93634313       3.99379837
H       -0.79609141      -0.46042767       2.57242286
H       -1.16331947       2.39209266      -0.63806111
H       -2.58292706       3.81703723       0.78568053
H       -6.88407432       5.12045381       1.15530937
H       -5.18142806       5.45258158       0.93634374
H       -3.80748826       7.00317006       1.73699166
H       -2.28304722       8.89738071       1.65326568
H       -5.37785638      11.39079299       0.02014373
C       -7.27597908       9.56133967      -0.02363466
C       -8.40241285       9.74417245      -0.41370534
Br     -10.22376098      10.03979760      -1.04441665
O        5.21063900      -4.20462191       7.42733729
C        4.51626964      -3.45027074       6.74408010
N        4.26495516      -3.76762385       5.42888875
N        3.50631615      -2.99036565       4.61410929
C        3.37621032      -3.33680136       3.36407281
C        4.06707283      -4.53561206       2.74353240
C        2.50413758      -2.49725722       2.48555916
C        1.80084171      -3.05354065       1.40985344
C        0.99328724      -2.24341512       0.60526660
C        0.88157678      -0.88157678       0.88157678
C        1.56388969      -0.32105872       1.95935052
C        2.37244975      -1.12940762       2.76325821
C        3.91241803      -2.14683293       7.27778689
O        4.69829415      -1.50201053       8.27268682
C        5.82303381      -0.82406394       7.88196414
C        6.25018754      -0.68577967       6.55590924
C        7.41591520       0.02747481       6.25565365
C        8.16012474       0.60943739       7.27788713
Cl       9.58930804       1.48802363       6.89796174
C        7.75271063       0.48684410       8.60159303
C        6.58843266      -0.22799313       8.89971099
H        4.66760824      -4.64029123       5.10693578
H        5.12998623      -4.52490098       3.00412076
H        4.01278797      -4.52871287       1.65283567
H        3.60818684      -5.45394526       3.11994001
H        1.84933990      -4.11659565       1.19057676
H        0.45173035      -2.68457972      -0.22822347
H        1.47325180       0.73900469       2.18310390
H        2.89919627      -0.68267306       3.60377548
H        2.96926056      -2.43034675       7.76023019
H        3.64402083      -1.43707042       6.48926213
H        5.70465003      -1.11909453       5.72390541
H        7.73545040       0.12255771       5.22080093
H        8.33738996       0.94376316       9.39516629
C        6.20416714      -0.32544971      10.28406724
C        5.88234477      -0.40706959      11.44346560
Br       5.36198521      -0.53904203      13.31811469
