141
Properties=species:S:1:pos:R:3 pbc="F F F"
C        0.00000000       0.00000000       0.00000000
O        4.65690208       4.66760922      -7.51808689
C        3.94909111       3.91736141      -6.84416795
N        3.98020113       4.00972444      -5.47154218
N        3.22702505       3.22217125      -4.66159478
C        3.37052208       3.33572357      -3.37083884
C        4.37204485       4.26345966      -2.71071279
C        2.50580588       2.49387364      -2.48727445
C        2.10726065       2.93699192      -1.21998322
C        1.29872719       2.12752594      -0.41571583
C        0.88157678       0.88157678      -0.88157678
C        1.25866331       0.43815559      -2.14748002
C        2.06793465       1.24560813      -2.95157280
C        3.02548461       2.85746568      -7.45408754
O        3.49980787       2.29964060      -8.67354304
C        4.51961845       1.38596967      -8.62347378
C        5.12048394       0.92566389      -7.44572861
C        6.15846996      -0.01123374      -7.49685782
C        6.60026232      -0.49619464      -8.72450680
Cl       7.87394127      -1.65112658      -8.77643145
C        6.01582959      -0.05471861      -9.90634857
C        4.97989916       0.88306103      -9.85317660
Br       4.21814161       1.44466428     -11.50301524
H        4.59126777       4.72646821      -5.09709927
H        5.35625775       4.13181848      -3.17093174
H        4.49454226       4.05381488      -1.64597937
H        4.04546814       5.29927361      -2.83733036
H        2.39602204       3.91514504      -0.84534523
H        0.99515929       2.48013145       0.56720414
H        0.92898633      -0.52942010      -2.51778478
H        2.35495507       0.89137240      -3.93931734
H        2.08995932       3.37794642      -7.69193176
H        2.75550324       2.06104567      -6.75380448
H        4.81130032       1.27160652      -6.46474313
H        6.61650958      -0.35580461      -6.57298864
H        6.36451666      -0.43728954     -10.86156597
O       -6.11274444      -6.95621849      -3.77363527
C       -5.38792393      -6.28886422      -3.03383233
N       -4.75830126      -5.17124190      -3.53192460
N       -3.94874326      -4.38305456      -2.77899327
C       -3.34267694      -3.38158540      -3.35282214
C       -3.44433309      -3.06875425      -4.83312995
C       -2.48682953      -2.49459818      -2.50552625
C       -2.32622018      -1.13547789      -2.80253772
C       -1.51909407      -0.33066734      -1.99220755
C       -0.88157678      -0.88157678      -0.88157678
C       -1.04790536      -2.22882003      -0.56757353
C       -1.85309357      -3.03448866      -1.37753335
C       -5.13031167      -6.64174971      -1.56497646
O       -5.15087399      -8.03632989      -1.28578762
C       -4.07348587      -8.79565437      -1.65992165
C       -2.92069040      -8.29471784      -2.27646820
C       -1.87015200      -9.15189304      -2.62204900
C       -1.96360288     -10.51398108      -2.35099053
Cl      -0.66478971     -11.55873440      -2.77572203
C       -3.09821253     -11.03237492      -1.73687211
C       -4.14778904     -10.17432153      -1.39402622
Br      -5.67087148     -10.94234807      -0.55260158
H       -4.95593153      -4.95636079      -4.50254293
H       -3.26547892      -3.97784779      -5.41568126
H       -2.69900989      -2.33894788      -5.15637874
H       -4.44342128      -2.68374415      -5.05490666
H       -2.83423827      -0.67621988      -3.64605417
H       -1.39998014       0.72344087      -2.23154732
H       -0.55891639      -2.66060973       0.30217510
H       -1.97847549      -4.08461603      -1.12255330
H       -5.96006585      -6.19830124      -1.00147041
H       -4.21900741      -6.18897907      -1.16236691
H       -2.79893702      -7.24139546      -2.50731749
H       -0.98327390      -8.74708196      -3.10333776
H       -3.16518438     -12.09631761      -1.52729111
O       -6.83302824       6.27145840       3.73811156
C       -6.12692434       5.59656153       2.98713460
N       -5.12800734       4.81400314       3.51945728
N       -4.31233238       4.03985921       2.75859950
C       -3.35108347       3.38197455       3.34402646
C       -3.05059845       3.46772438       4.82789446
C       -2.48500289       2.49919177       2.50275930
C       -1.90352365       1.33669721       3.02401494
C       -1.09769844       0.53087834       2.21339217
C       -0.88157678       0.88157678       0.88157678
C       -1.46878379       2.02710916       0.34840597
C       -2.27309889       2.83404120       1.15797549
C       -6.28935093       5.58432979       1.46335712
O       -6.74513227       6.81440731       0.91345192
C       -5.86008973       7.85556348       0.81340869
C       -4.51186288       7.79438687       1.18562669
C       -3.68455148       8.91408139       1.04546117
C       -4.19829126      10.10051415       0.52976908
Cl      -3.17192761      11.47005479       0.35726373
C       -5.53365322      10.18257098       0.15123535
C       -6.35924814       9.06299459       0.29389406
Br      -8.17494250       9.23629889      -0.24542026
H       -5.05137368       4.83352028       4.52994129
H       -3.00636189       4.51710697       5.13553911
H       -2.08480903       3.02643340       5.08309409
H       -3.83819164       2.95607200       5.38780846
H       -2.07898553       1.02696464       4.05056214
H       -0.64994644      -0.36944347       2.62758362
H       -1.30927202       2.29993207      -0.69185308
H       -2.72894893       3.72506901       0.73162688
H       -7.06715415       4.84066651       1.25201684
H       -5.39530075       5.24155447       0.93349817
H       -4.06362946       6.89305828       1.59096223
H       -2.64059645       8.85065374       1.34244342
H       -5.92883161      11.11115509      -0.25119360
O        4.76473989      -4.56331632       7.51454200
C        4.05975757      -3.81189187       6.83897104
N        4.03553705      -3.95533059       5.47060012
N        3.28146642      -3.16989393       4.65943074
C        3.37180232      -3.33576007       3.36952210
C        4.31316027      -4.32415811       2.70889891
C        2.50553978      -2.49456551       2.48684868
C        2.04345802      -2.96818399       1.25259379
C        1.23511992      -2.15856382       0.44828523
C        0.88157678      -0.88157678       0.88157678
C        1.32218801      -0.40689469       2.11521623
C        2.13132975      -1.21453848       2.91924736
C        3.19912585      -2.69629373       7.44161826
O        3.73925217      -2.11273661       8.62100273
C        4.78906040      -1.24072749       8.49927400
C        5.36132286      -0.84670954       7.28384405
C        6.43395592       0.05149497       7.26163310
C        6.93925058       0.56381763       8.45314154
Cl       8.25522771       1.67086904       8.41488748
C        6.38423943       0.18813115       9.67135128
C        5.31354969      -0.71110635       9.69148074
Br       4.59478298      -1.18299017      11.38804798
H        4.60547402      -4.70784614       5.10151509
H        5.31822060      -4.21315476       3.12763261
H        4.40285432      -4.15824142       1.63324077
H        3.95407283      -5.34157424       2.88642503
H        2.28200005      -3.96956350       0.90494877
H        0.88193989      -2.53502298      -0.50887627
H        1.04223747       0.58531175       2.46042530
H        2.46822705      -0.83564958       3.88176819
H        2.25491951      -3.17200005       7.73291794
H        2.93205423      -1.91628315       6.72201600
H        5.00285086      -1.21623210       6.32856701
H        6.86897481       0.34459307       6.30931187
H        6.78252057       0.59179804      10.59807057
