198
Properties=species:S:1:pos:R:3 pbc="F F F"
C        5.19540985       6.39077337      -4.49145045
C        3.93406973       5.55171688      -4.41350299
O        4.30375358       4.20891983      -4.09153558
C        3.42170303       3.43834158      -3.38322134
C        2.10246755       3.80696941      -3.08721370
C        1.29602000       2.99231087      -2.28501532
C        1.79123734       1.79123734      -1.79123734
C        3.08107475       1.38485936      -2.10537291
C        3.89284804       2.20169136      -2.90853730
C        5.24954612       1.72197452      -3.26060131
N        5.78283527       0.72510195      -2.62645817
N        7.00869045       0.33293181      -3.05773888
C        7.78052281      -0.57057167      -2.35628920
O        8.88065495      -0.90404182      -2.79610647
C        7.20050158      -1.08667643      -1.02185104
H        6.55424193      -0.32944833      -0.55991994
C        6.33820127      -2.31373560      -1.30865704
O        8.20194499      -1.49326820      -0.08646696
C        8.70105041      -0.52245536       0.74022211
C        9.23026592      -0.98957490       1.94661563
C        9.77425437      -0.10029305       2.87593071
C        9.80318681       1.26223840       2.58812346
C        9.29496106       1.73734256       1.38160597
C        8.74548801       0.84347685       0.45626955
H        4.95572312       7.42460685      -4.76196149
H        5.89876272       5.98362030      -5.22021103
H        5.70362182       6.39647748      -3.52022946
H        3.42011404       5.55016992      -5.38280629
H        3.28868282       6.00849060      -3.65705593
H        1.66474239       4.72745408      -3.45866140
H        0.28231265       3.30960345      -2.05164512
H        3.45766165       0.43308601      -1.73457646
H        5.78319684       2.24401584      -4.07442838
H        7.40109046       0.70056416      -3.91802212
H        6.94698419      -3.13355075      -1.70715188
H        5.54370831      -2.09668397      -2.02890204
H        5.88059080      -2.68144807      -0.38364214
H        9.21058453      -2.05478378       2.16694927
H       10.17228510      -0.48018959       3.81272475
H        9.32737689       2.79710690       1.14454779
H        8.37726993       1.24662143      -0.48103377
C       10.36611791       2.18499987       3.53955389
C       10.83757270       2.95781260       4.33637687
Br      11.59987522       4.20738542       5.62477224
C       -5.04272185      -4.59720816      -6.43770366
C       -4.98763980      -3.68375892      -5.22789088
O       -4.07997454      -4.24653374      -4.27770070
C       -3.39433723      -3.40217598      -3.44675275
C       -3.63461792      -2.02598609      -3.33604664
C       -2.82870321      -1.22341864      -2.52122433
C       -1.79123734      -1.79123734      -1.79123734
C       -1.56011898      -3.15884671      -1.85234134
C       -2.36629202      -3.96589004      -2.67089464
C       -2.12182770      -5.42698211      -2.68331214
N       -1.03028527      -5.91826123      -2.18584890
N       -0.92510540      -7.27146916      -2.20278658
C        0.25372428      -7.92112473      -1.89883988
O        0.29446585      -9.15115602      -1.91602944
C        1.47265683      -7.02922169      -1.57911133
H        1.40865972      -6.07533882      -2.11803444
C        1.46620464      -6.71429554      -0.08503182
O        2.72540626      -7.65518023      -1.86536979
C        3.20877240      -7.50898961      -3.13815573
C        4.59591604      -7.62994181      -3.26004963
C        5.21356761      -7.50522429      -4.50637392
C        4.43607038      -7.27454613      -5.63882601
C        3.05137682      -7.16995325      -5.53212122
C        2.43753294      -7.28953061      -4.28069765
H       -5.74929822      -4.21230016      -7.18069308
H       -5.33478849      -5.61084176      -6.15696379
H       -4.05283986      -4.66362597      -6.90386293
H       -5.97901111      -3.61041354      -4.76366561
H       -4.67490808      -2.69690179      -5.58241948
H       -4.43931802      -1.53688119      -3.87465867
H       -3.02142106      -0.15443090      -2.46770926
H       -0.76031007      -3.60286826      -1.26214579
H       -2.89749404      -6.07317965      -3.13096738
H       -1.71956073      -7.85327308      -2.44684293
H        1.60032769      -7.62735627       0.50644326
H        0.53276090      -6.23770361       0.22901634
H        2.30001617      -6.04985229       0.16705125
H        5.20043783      -7.81469162      -2.37459767
H        6.29392809      -7.59242215      -4.58087670
H        2.43770816      -7.00441286      -6.41323130
H        1.35570955      -7.22247818      -4.23815651
C        5.06523284      -7.14880658      -6.92799014
C        5.59215639      -7.04349971      -8.00766511
Br       6.44414722      -6.87322740      -9.75340821
C       -4.41821485       6.33752279       5.32189602
C       -3.67955458       5.01805319       5.20168184
O       -4.21617960       4.29955016       4.08847922
C       -3.39491719       3.44684579       3.40150298
C       -2.10126409       3.09007228       3.80531428
C       -1.29982870       2.27596852       2.99754897
C       -1.79123734       1.79123734       1.79123734
C       -3.08464221       2.09689913       1.38976568
C       -3.88999235       2.91532042       2.19776393
C       -5.27934177       3.18982766       1.76295252
N       -5.65593808       2.92787724       0.55058007
N       -6.96099130       3.17103875       0.26733109
C       -7.45265826       3.13506631      -1.02148423
O       -8.64728572       3.35042872      -1.22499484
C       -6.43205119       2.84715232      -2.14352732
H       -5.43602159       3.21603027      -1.86733832
C       -6.32703058       1.33519080      -2.32909866
O       -6.80911469       3.39485871      -3.40882965
C       -6.41810547       4.68246018      -3.66219271
C       -6.30225620       5.00828993      -5.01647073
C       -5.91475875       6.29153461      -5.40826275
C       -5.65794833       7.25806728      -4.43871385
C       -5.78736332       6.94999583      -3.08666149
C       -6.16992419       5.66147078      -2.69869965
H       -4.05206185       6.90842935       6.18180025
H       -5.49366109       6.18244949       5.42648346
H       -4.26480008       6.93786472       4.41766395
H       -3.82616424       4.41831470       6.10861132
H       -2.61708155       5.25231135       5.08483645
H       -1.67621403       3.43141281       4.74323104
H       -0.29151417       2.02978874       3.32225831
H       -3.47333081       1.69735750       0.45463582
H       -5.97270864       3.62428075       2.50465167
H       -7.62184511       3.39366330       1.00416833
H       -7.27922558       0.91797843      -2.67661869
H       -6.04974106       0.82692175      -1.40073643
H       -5.58023942       1.09706719      -3.09452174
H       -6.50787619       4.25279761      -5.77182232
H       -5.82044189       6.52421447      -6.46528561
H       -5.60255868       7.70301808      -2.32564076
H       -6.27985649       5.46302284      -1.63795419
C       -5.26185085       8.58461875      -4.83490571
C       -4.93011921       9.69560560      -5.16671639
Br      -4.39373721      11.49197738      -5.70322620
C        5.66113598      -4.28433806       6.13215963
C        5.41001842      -3.75713600       4.73213519
O        4.10850209      -4.17836558       4.31734131
C        3.41124713      -3.38787117       3.44414765
C        3.94086766      -2.26966145       2.78612153
C        3.13087476      -1.46903972       1.97343170
C        1.79123734      -1.79123734       1.79123734
C        1.25412594      -2.91783267       2.39934842
C        2.06454556      -3.72159904       3.21693210
C        1.47382852      -4.93969520       3.81859823
N        0.18938996      -5.11391111       3.83109433
N       -0.24708514      -6.28444430       4.36200198
C       -1.58064517      -6.51928061       4.62760490
O       -1.92756758      -7.60261541       5.09767177
C       -2.55904705      -5.36200573       4.33271751
H       -2.06154591      -4.39143443       4.45482501
C       -3.01172383      -5.46664865       2.87819790
O       -3.73963411      -5.39698926       5.13778861
C       -3.67563119      -4.76379398       6.35021014
C       -4.90603846      -4.33991976       6.86019409
C       -4.97747768      -3.68429062       8.09121767
C       -3.81229684      -3.46679849       8.82280010
C       -2.58281160      -3.90054106       8.33296820
C       -2.51530349      -4.55150068       7.09649812
H        6.66181221      -4.00324908       6.47723016
H        5.56062497      -5.37058377       6.17138530
H        4.92514648      -3.86642410       6.82875819
H        6.14982434      -4.16888080       4.03438512
H        5.51176071      -2.66843419       4.77403445
H        4.98251019      -1.98322171       2.88512599
H        3.55944241      -0.59427750       1.48984131
H        0.20984476      -3.17890840       2.23657096
H        2.16437333      -5.68375013       4.25351760
H        0.40335426      -7.02997523       4.58634726
H       -3.58054770      -6.38883529       2.71229773
H       -2.16581143      -5.45739136       2.18434644
H       -3.67906494      -4.63490276       2.62694705
H       -5.81516663      -4.51513070       6.28888740
H       -5.94134140      -3.35314268       8.46756948
H       -1.67199757      -3.74696805       8.90496552
H       -1.54377249      -4.89300613       6.75569149
C       -3.87832038      -2.79506957      10.09481470
C       -3.93361509      -2.23249659      11.16012692
Br      -4.02302197      -1.32286367      12.88264669
C       -0.00445707       0.01189536      -1.78238275
H       -0.66409135       0.67374010      -2.43557963
H        0.65740317      -0.63156657      -2.45157240
C       -0.90989263      -0.90692880      -0.91072765
C        0.90977584       0.90977584      -0.90977584
C       -0.00465871       1.77757030       0.00794375
H       -0.66225468       2.44313916      -0.64384735
H        0.64322798       2.43503045       0.67728295
C       -1.78241447       0.00034974      -0.00472694
H       -2.45427497      -0.65498947       0.64260836
H       -2.43311707       0.67328779      -0.65473579
C       -0.91132561       0.90220522       0.91563759
C       -0.01476271      -0.02253852       1.78660255
H       -0.67934791      -0.69751639       2.42135241
H        0.63392994       0.61504881       2.47327442
C        0.01484550      -1.77751727      -0.01636693
H        0.67870853      -2.42144646      -0.68295456
H       -0.62264859      -2.45592969       0.64226336
C        1.78714474       0.01002794       0.00389507
H        2.44202412       0.67113390       0.66197326
H        2.45385902      -0.65136977      -0.64189061
C        0.91606151      -0.90478549       0.90901405
