186
Properties=species:S:1:pos:R:3 pbc="F F F"
C        1.79157870       1.79157870      -1.79157870
C        2.77259877       2.59351283      -1.20967464
C        3.57832910       3.40131996      -2.01682414
C        3.39818765       3.40865589      -3.40471322
C        2.41258049       2.59756734      -3.97901818
C        1.60892808       1.78841782      -3.17333201
C        4.23166515       4.24454639      -4.26687945
C        5.44788875       3.83724009      -4.65715169
C        6.33305106       4.61106593      -5.55351507
O        7.53429799       4.39482408      -5.61648247
O        5.60057891       5.52609608      -6.29516710
C        6.22027172       6.30372955      -7.29901249
C        7.17204165       5.75176107      -8.16212211
C        7.73035644       6.53476897      -9.17429926
C        7.32644566       7.85882182      -9.34028797
C        6.35289383       8.40252993      -8.50052227
C        5.78817307       7.62432223      -7.48196587
C        4.73085659       8.20025007      -6.62387317
N        4.27336587       9.39868731      -6.81299359
C        3.26776672       9.84991248      -5.94549604
C        3.48382530       9.97122151      -4.56820891
C        2.47514660      10.45483006      -3.73027412
C        1.25091202      10.83677335      -4.27489395
Br      -0.11071516      11.50167229      -3.14519063
C        1.02726969      10.74091789      -5.64670673
C        2.03913413      10.25056516      -6.47766780
H        2.91659825       2.59736535      -0.13202816
H        4.34037161       4.02407170      -1.55367110
H        2.26437662       2.58876219      -5.05701710
H        0.84721548       1.16341818      -3.63149661
H        3.79614632       5.18914100      -4.57855383
H        5.87261836       2.89796629      -4.31643875
H        7.49046780       4.71744825      -8.06479128
H        8.48023329       6.10835590      -9.83676142
H        7.76252743       8.46656028     -10.12964552
H        6.03419033       9.43232030      -8.64865165
H        4.33775666       7.56256653      -5.81214648
H        4.44723623       9.70012524      -4.14509612
H        2.66014767      10.53949875      -2.66337735
H        0.08012803      11.05001979      -6.08024514
H        1.87445325      10.18615110      -7.54984495
C       -1.79157870      -1.79157870      -1.79157870
C       -1.90476722      -3.15391588      -1.51710314
C       -2.71065725      -3.96070760      -2.32510836
C       -3.39862040      -3.40374370      -3.40919266
C       -3.28055824      -2.03444943      -3.67415835
C       -2.47750443      -1.22742218      -2.86575130
C       -4.24831463      -4.22957891      -4.26519746
C       -5.50775843      -4.52302301      -3.91149909
C       -6.43610638      -5.32263570      -4.73888998
O       -7.42777235      -5.85513657      -4.26269563
O       -6.03682904      -5.31781672      -6.06719633
C       -6.83243317      -5.92756026      -7.06302034
C       -8.22522261      -5.80263445      -7.05806778
C       -8.97886702      -6.37720604      -8.08335162
C       -8.34565089      -7.05691762      -9.12298694
C       -6.95339511      -7.15519280      -9.14735811
C       -6.18968228      -6.58244710      -8.12233178
C       -4.71438757      -6.66076945      -8.17982282
N       -4.09671653      -7.20874888      -9.17958136
C       -2.69480921      -7.22911797      -9.13924806
C       -1.99731775      -7.89849724      -8.12744073
C       -0.60004332      -7.93115056      -8.12905690
C        0.10269484      -7.30743900      -9.15783516
Br       1.99200323      -7.35992312      -9.16822787
C       -0.57761939      -6.65407809     -10.18319682
C       -1.97531566      -6.62064312     -10.17140831
H       -1.37048825      -3.59584646      -0.67965704
H       -2.79203583      -5.02247593      -2.10360265
H       -3.81358003      -1.58626850      -4.51030739
H       -2.39414879      -0.16583381      -3.08214767
H       -3.80278054      -4.56369090      -5.19736971
H       -5.92639585      -4.19595867      -2.96466888
H       -8.74117801      -5.26277013      -6.26875920
H      -10.06302091      -6.29077262      -8.07155707
H       -8.93483585      -7.50327135      -9.92062603
H       -6.46883724      -7.67489304      -9.97143200
H       -4.15337703      -6.22522027      -7.33387237
H       -2.54390915      -8.40920359      -7.33934486
H       -0.07576179      -8.45329082      -7.33397116
H       -0.03669803      -6.17754330     -10.99615164
H       -2.51102221      -6.12371147     -10.97571562
C       -1.79157870       1.79157870       1.79157870
C       -1.30420827       2.26082291       3.01075506
C       -2.11195473       3.06652916       3.81798931
C       -3.40778589       3.39784231       3.40592856
C       -3.88623331       2.92410287       2.17882983
C       -3.07879243       2.12112868       1.37075679
C       -4.26790502       4.24093712       4.23424885
C       -4.16277031       5.57710454       4.20240568
C       -5.01828393       6.49469196       4.98465618
O       -4.69099752       7.65186092       5.20274611
O       -6.19819657       5.86736212       5.35628340
C       -7.21944351       6.58375474       6.01981552
C       -7.55514629       7.88787642       5.64290213
C       -8.60147039       8.55071179       6.28724249
C       -9.32607112       7.90885481       7.29062951
C       -9.01396163       6.59559520       7.64638920
C       -7.96525289       5.92350190       7.00570638
C       -7.66955615       4.52020323       7.36522045
N       -8.38381767       3.87052406       8.23070504
C       -8.02198114       2.54218863       8.49900547
C       -6.77239445       2.21408461       9.03677667
C       -6.44946197       0.88525794       9.32553087
C       -7.38772848      -0.11815000       9.09300085
Br      -6.95739288      -1.91451899       9.49327387
C       -8.64341164       0.19468669       8.57679598
C       -8.95685807       1.52561073       8.28489829
H       -0.30039396       2.00483966       3.34075814
H       -1.72329905       3.42710415       4.76771121
H       -4.88967130       3.17769824       1.84278638
H       -3.46207920       1.75964476       0.42040631
H       -4.99614088       3.71953696       4.84816330
H       -3.41309216       6.07709214       3.59683910
H       -7.01742494       8.40341932       4.85186308
H       -8.85320245       9.56977120       6.00237694
H      -10.14085243       8.42712006       7.79076074
H       -9.59579033       6.09907804       8.42029392
H       -6.81301604       4.04023049       6.85922315
H       -6.04946008       2.99814316       9.24485435
H       -5.47366576       0.64931864       9.74003937
H       -9.38511743      -0.58073741       8.40601295
H       -9.93943568       1.77652216       7.89449145
C        1.79157870      -1.79157870       1.79157870
C        1.90521710      -1.51675991       3.15380923
C        2.71333815      -2.32306301       3.96007205
C        3.40995004      -3.40054890       3.40105783
C        3.28651689      -3.66961229       2.03303683
C        2.47732717      -2.86588654       1.22746420
C        4.25861683      -4.25733756       4.22713660
C        3.73602476      -5.26321501       4.94304076
C        4.53308493      -6.19076982       5.77377731
O        4.02471238      -6.85900591       6.66188626
O        5.85702323      -6.20437630       5.36044256
C        6.78532030      -7.09896435       5.93872912
C        6.43702337      -8.42234584       6.22655563
C        7.39184468      -9.29414498       6.75343502
C        8.69668164      -8.85517362       6.97370018
C        9.05523408      -7.54379362       6.65691832
C        8.10340417      -6.66228822       6.12876878
C        8.50536467      -5.28755736       5.76205781
N        9.73150375      -4.88061040       5.87293262
C       10.00937529      -3.55871664       5.49508331
C        9.41471954      -2.46845245       6.14008374
C        9.73419465      -1.16030196       5.76575418
C       10.66704582      -0.94123345       4.75430006
Br      11.10907616       0.82703151       4.25410311
C       11.28275458      -2.01588482       4.11625490
C       10.95348567      -3.32165682       4.49222459
H        1.37109627      -0.67919316       3.59570232
H        2.79634810      -2.10031267       5.02145363
H        3.81789833      -4.50701281       1.58524477
H        2.39004705      -3.08527703       0.16680619
H        5.32190320      -4.03837932       4.20355862
H        2.66706457      -5.45132365       4.96863518
H        5.43170292      -8.79367038       6.04733403
H        7.11646233     -10.31958690       6.98930136
H        9.43868200      -9.53622465       7.38382658
H       10.08016631      -7.21622614       6.81876983
H        7.71527358      -4.61638026       5.38081584
H        8.70781017      -2.63669497       6.94795245
H        9.26053393      -0.32659589       6.27589396
H       12.02145497      -1.85257264       3.33636535
H       11.44050826      -4.16310679       4.00683426
C       -0.00445707       0.01189536      -1.78238275
H       -0.66409135       0.67374010      -2.43557963
H        0.65740317      -0.63156657      -2.45157240
C       -0.90989263      -0.90692880      -0.91072765
C        0.90977584       0.90977584      -0.90977584
C       -0.00465871       1.77757030       0.00794375
H       -0.66225468       2.44313916      -0.64384735
H        0.64322798       2.43503045       0.67728295
C       -1.78241447       0.00034974      -0.00472694
H       -2.45427497      -0.65498947       0.64260836
H       -2.43311707       0.67328779      -0.65473579
C       -0.91132561       0.90220522       0.91563759
C       -0.01476271      -0.02253852       1.78660255
H       -0.67934791      -0.69751639       2.42135241
H        0.63392994       0.61504881       2.47327442
C        0.01484550      -1.77751727      -0.01636693
H        0.67870853      -2.42144646      -0.68295456
H       -0.62264859      -2.45592969       0.64226336
C        1.78714474       0.01002794       0.00389507
H        2.44202412       0.67113390       0.66197326
H        2.45385902      -0.65136977      -0.64189061
C        0.91606151      -0.90478549       0.90901405
