173
Properties=species:S:1:pos:R:3 pbc="F F F"
C        0.00000000       0.00000000       0.00000000
O        5.26210544       1.54483077      -5.74048547
C        5.77270042       2.28563434      -4.89904233
C        6.24409568       3.67658609      -5.27304268
C        5.58480393       4.83453816      -4.52884435
C        4.11830675       5.04798558      -4.87343737
C        3.04041101       4.10765640      -4.34455808
O        1.91877679       4.18957331      -4.85404231
N        3.36003580       3.34598961      -3.24230457
C        2.48951106       2.51751633      -2.49842710
C        1.15462950       2.27563848      -2.83504159
C        0.35277674       1.45428176      -2.03469078
C        0.88189134       0.88189134      -0.88189134
C        2.20999113       1.10818730      -0.53275472
C        3.01238134       1.91397413      -1.34738061
N        5.95261214       1.85908237      -3.60842133
N        6.65714055       2.60152355      -2.61824365
C        7.28301249       1.80210180      -1.73595010
H        7.56655675       2.16917264      -0.75096837
C        8.10650134       0.64545967      -2.15601527
C        8.83749738       0.64908663      -3.35340404
C        9.62565312      -0.44327144      -3.72007314
C        9.70045745      -1.55326454      -2.88225800
C        8.98834872      -1.55776469      -1.68248153
C        8.19941768      -0.46626023      -1.31346586
H        6.08598767       3.80054361      -6.35217137
H        7.33021151       3.71014516      -5.12301532
H        6.12288145       5.74469016      -4.82708717
H        5.71386222       4.77137377      -3.44650161
H        4.01161955       5.07747425      -5.96507254
H        3.83598110       6.04273519      -4.50220550
H        4.35183419       3.24704551      -2.98946681
H        0.71216431       2.69250335      -3.73316234
H       -0.67582903       1.26988867      -2.33002537
H        2.63785557       0.66549522       0.36147310
H        4.05462795       2.07420337      -1.07198540
H        5.77605984       0.87647369      -3.42428408
H        8.77619615       1.51484511      -4.00954123
H       10.16831094      -0.42145368      -4.66009049
H       10.30845549      -2.40388997      -3.17350012
H        7.64256094      -0.47549486      -0.38163666
C        9.07009313      -2.70497049      -0.81597319
C        9.13855407      -3.66575534      -0.09027245
Br       9.24924963      -5.21926319       1.08312427
O       -4.84145238      -1.62826145      -6.07770784
C       -5.49966461      -2.22989632      -5.22781617
C       -6.07319311      -3.60233176      -5.51819958
C       -5.60585049      -4.73459150      -4.60774445
C       -4.14309491      -5.11576169      -4.78087310
C       -3.02866911      -4.22977150      -4.23418489
O       -1.87904728      -4.46565420      -4.61769093
N       -3.36943525      -3.33419182      -3.24470290
C       -2.49152924      -2.51815646      -2.49576879
C       -1.11374633      -2.43537547      -2.71618778
C       -0.30977913      -1.61435435      -1.91761580
C       -0.88189134      -0.88189134      -0.88189134
C       -2.25252846      -0.94859151      -0.64981318
C       -3.05413806      -1.75558627      -1.46401177
N       -5.75330535      -1.66003615      -4.00677434
N       -6.61746611      -2.23039389      -3.02904775
C       -7.23755338      -1.29155052      -2.29196050
H       -7.64617431      -1.52929439      -1.31122907
C       -7.89747864      -0.11264925      -2.89784838
C       -8.51189490      -0.17037633      -4.15771682
C       -9.14824189       0.94700797      -4.70122090
C       -9.18688413       2.13833672      -3.98090349
C       -8.59130859       2.19890699      -2.72066395
C       -7.95432282       1.08253478      -2.17483528
H       -5.82993075      -3.84900778      -6.55976412
H       -7.16628781      -3.52052854      -5.47655564
H       -6.20367831      -5.61694187      -4.87403859
H       -5.82679201      -4.55048174      -3.55446385
H       -3.94004747      -5.26539750      -5.84872138
H       -3.99835003      -6.08949320      -4.29307855
H       -4.36512384      -3.11938391      -3.10383875
H       -0.63512113      -2.98000299      -3.52270588
H        0.75498831      -1.55617935      -2.12289398
H       -2.71371522      -0.38011634       0.15195388
H       -4.12813652      -1.79059115      -1.28208904
H       -5.49577150      -0.68423871      -3.89680740
H       -8.47858139      -1.10011615      -4.72188495
H       -9.60159387       0.88002744      -5.68538132
H       -9.67619650       3.00734315      -4.40921230
H       -7.48742778       1.13491551      -1.19619047
C       -8.63569255       3.43064400      -1.97604728
C       -8.67286411       4.46222376      -1.35243082
Br      -8.73296739       6.13020097      -0.34409575
O       -1.94896800       6.53764169       4.06081199
C       -2.27543244       5.74050122       4.94144344
C       -3.57257695       5.91582247       5.70532503
C       -4.57681265       4.77137173       5.60000207
C       -5.20444033       4.61210860       4.22318077
C       -4.41599446       4.01358633       3.06304471
O       -4.89285315       4.13846575       1.93107350
N       -3.31232509       3.25378399       3.38222090
C       -2.51815748       2.49153464       2.49576238
C       -2.69093874       2.46539847       1.10897237
C       -1.87140570       1.66930161       0.30104197
C       -0.88189134       0.88189134       0.88189134
C       -0.69246160       0.89787936       2.26059220
C       -1.50160996       1.71087921       3.06124692
N       -1.45892093       4.68962426       5.27157064
N       -1.69976420       3.81101137       6.36613218
C       -0.55730400       3.35418673       6.90957366
H       -0.54501113       2.44038479       7.50130185
C        0.57784585       4.24550945       7.24031268
C        0.38539382       5.57247440       7.65290746
C        1.46863340       6.38940989       7.98167833
C        2.76337438       5.88111370       7.91171159
C        2.96156316       4.55768571       7.51694301
C        1.87963422       3.73853246       7.18772507
H       -4.04079090       6.84425519       5.35365656
H       -3.31677751       6.08866614       6.75792834
H       -5.39000354       5.00342099       6.30123425
H       -4.17063391       3.81780949       5.94329420
H       -5.57706302       5.58841959       3.88868374
H       -6.08255770       3.96166876       4.33669533
H       -2.92422700       3.33295571       4.33116379
H       -3.44159628       3.07644836       0.61978536
H       -2.01697572       1.68212407      -0.77501477
H        0.07778352       0.29192225       2.72773896
H       -1.33640814       1.72600168       4.13840689
H       -0.53117445       4.68622782       4.85941534
H       -0.62590855       5.97053820       7.70413574
H        1.29294259       7.41772120       8.28216913
H        3.60393279       6.52088521       8.16111322
H        2.03804831       2.71083610       6.87591494
C        4.30087963       4.03309120       7.44888426
C        5.42255717       3.59374330       7.39188506
Br       7.23621489       2.88335490       7.29972217
O        2.83389165      -6.83440938       2.87912065
C        2.70311164      -6.28190927       3.97235618
C        3.78772289      -6.37965238       5.02634917
C        4.40468180      -5.06049599       5.48300867
C        5.24933769      -4.36390160       4.42649042
C        4.60060956      -3.64167990       3.25033604
O        5.33447825      -3.31524967       2.31266448
N        3.27929036      -3.27868084       3.39035877
C        2.51530078      -2.48680869       2.50334503
C        2.97936705      -2.01298710       1.27295542
C        2.16417030      -1.21864783       0.45893114
C        0.88189134      -0.88189134       0.88189134
C        0.40117994      -1.34763430       2.10211892
C        1.21337634      -2.15784244       2.90251730
N        1.55970350      -5.58745128       4.27296106
N        1.27726662      -5.04190699       5.55773414
C       -0.04068294      -5.03531591       5.82643142
H       -0.45563146      -4.36500910       6.57732013
C       -0.90476939      -6.21564321       5.59710246
C       -0.42571404      -7.52653267       5.73916942
C       -1.26320039      -8.62556264       5.54009258
C       -2.60002496      -8.42369422       5.20578164
C       -3.08736131      -7.12265654       5.07777034
C       -2.25164820      -6.02172958       5.27654193
H        4.57635657      -7.03226864       4.63007745
H        3.36508208      -6.90932834       5.88896157
H        5.07088212      -5.30101876       6.32275790
H        3.66807659      -4.36813950       5.89552152
H        5.95955402      -5.08751715       4.00709517
H        5.84639700      -3.59650187       4.93802291
H        2.72936117      -3.72039999       4.13858534
H        3.96708189      -2.26680373       0.90394437
H        2.54473872      -0.87914156      -0.49979527
H       -0.59826154      -1.09641578       2.44372344
H        0.82261203      -2.52802667       3.85017801
H        0.78996798      -5.67054640       3.61630324
H        0.61953598      -7.68416232       5.99688419
H       -0.86299196      -9.62975423       5.64018547
H       -3.24686926      -9.28024984       5.04468506
H       -2.63309376      -5.01087665       5.17091984
C       -4.47082373      -6.91623208       4.73568748
C       -5.62947351      -6.74335159       4.44919310
Br      -7.50291220      -6.46381847       3.98595590
