125
Properties=species:S:1:pos:R:3 pbc="F F F"
C        0.00000000       0.00000000       0.00000000
O        7.94841377      -2.09657855      -2.36474991
C        6.76605195      -1.99353227      -2.02092880
N        6.12724249      -0.77019670      -2.18744214
N        4.72501637      -0.56316779      -2.05033057
C        4.40687421       0.71557265      -2.30439843
H        5.12726223       1.45934416      -2.62992198
C        3.03608465       1.20971430      -2.02801546
C        2.16606853       0.43896670      -1.22363464
C        0.88469094       0.88469094      -0.88469094
C        0.44647285       2.11798865      -1.34580955
O       -0.79529278       2.60767386      -1.03263885
C        1.28178948       2.89428472      -2.14715362
O        0.77675421       4.10575976      -2.56742595
C        2.56848452       2.45486203      -2.49477916
C        6.06140675      -3.17498632      -1.40699575
C        5.10729754      -3.02524834      -0.40493904
C        4.52279054      -4.16199472       0.15026167
C        4.92664752      -5.41693252      -0.28731637
C        5.90928388      -5.48371735      -1.26117470
N        6.49053472      -4.40549805      -1.82289517
H        6.67785276      -0.04621998      -2.62857089
H        2.50940203      -0.52423932      -0.85042924
H       -0.83068157       3.47724246      -1.47883542
H        1.48189487       4.50736563      -3.11142595
H        4.82534919      -2.03684097      -0.05779371
H        3.75971861      -4.05788552       0.91598892
H        4.49088255      -6.31920326       0.12331940
H        6.26888372      -6.44017811      -1.62890306
C        3.35281289       3.31923981      -3.33815338
C        4.00968789       4.04315620      -4.04447929
Br       5.07179922       5.21366777      -5.18654854
O       -8.34562438       1.38875400      -1.25971475
C       -7.12693024       1.38924719      -1.05576544
N       -6.38762816       0.27311308      -1.42997285
N       -4.96508258       0.21821272      -1.46530928
C       -4.54692451      -0.98097113      -1.89894965
H       -5.21871521      -1.76572266      -2.23209049
C       -3.10914045      -1.33766328      -1.82701068
C       -2.23642100      -0.55882794      -1.03342093
C       -0.88469094      -0.88469094      -0.88469094
C       -0.37689257      -2.00331926      -1.53005922
O        0.93729762      -2.37453581      -1.40778173
C       -1.21440689      -2.78389601      -2.32492493
O       -0.63812432      -3.87743076      -2.93438483
C       -2.57174479      -2.46397076      -2.48241017
C       -6.48272153       2.57428431      -0.38497896
C       -5.40763943       2.43318874       0.48746245
C       -4.88427517       3.56616734       1.10757367
C       -5.46544254       4.80411163       0.86429954
C       -6.55673314       4.85699859       0.01299333
N       -7.08376053       3.78288514      -0.60705645
H       -6.90732239      -0.46016171      -1.89271957
H       -2.63255544       0.31332825      -0.51636475
H        1.01097834      -3.18257797      -1.95379667
H       -1.35615414      -4.29963272      -3.44489959
H       -4.98529936       1.45368052       0.68531692
H       -4.03025944       3.47250691       1.77190836
H       -5.08137162       5.70323848       1.32977326
H       -7.05483114       5.79803036      -0.20080789
C       -3.35460831      -3.32118722      -3.33441055
C       -4.01025652      -4.03910600      -4.04796086
Br      -5.07038421      -5.19991995      -5.20171138
O        1.93357139       8.06785525       2.08230127
C        1.75669719       6.93958991       1.61055576
N        0.73900283       6.15009941       2.13339135
N        0.27516843       4.93604433       1.55130324
C       -0.73683710       4.42245547       2.26755272
H       -1.16885019       4.91440637       3.13327180
C       -1.24480835       3.06179939       1.96720667
C       -0.48043191       2.19645164       1.15178632
C       -0.88469094       0.88469094       0.88469094
C       -2.06811239       0.40992663       1.43223203
O       -2.50385099      -0.87136770       1.21253663
C       -2.84447676       1.24529332       2.23345775
O       -4.00607829       0.70371384       2.74014779
C       -2.44865420       2.56393581       2.50553571
C        2.65881680       6.43962357       0.51260940
C        3.03203689       5.10232331       0.41670183
C        3.90309402       4.71249682      -0.59886864
C        4.40142594       5.67074740      -1.47229009
C        4.01253928       6.98727140      -1.28799089
N        3.16819362       7.39715422      -0.32102876
H        0.17499372       6.58349540       2.85170198
H        0.45415039       2.56075883       0.72898351
H       -3.34235905      -0.92951572       1.71255298
H       -4.41839963       1.41670614       3.26558068
H        2.65311990       4.37377843       1.12564339
H        4.18309037       3.66797630      -0.69904176
H        5.07897046       5.39964778      -2.27231744
H        4.38294057       7.77629905      -1.93574981
C       -3.32284038       3.35545116       3.33191454
C       -4.05497130       4.01834526       4.02400681
Br      -5.23876508       5.09018897       5.14306148
O       -1.95874715      -8.05073730       2.12459499
C       -1.77911529      -6.92523121       1.64733257
N       -0.75589428      -6.13786035       2.16252186
N       -0.28941289      -4.92824703       1.57334500
C        0.72777491      -4.41593294       2.28313744
H        1.16137233      -4.90605337       3.14910266
C        1.24020419      -3.05871979       1.97489043
C        0.47603743      -2.19358916       1.15904328
C        0.88469094      -0.88469094       0.88469094
C        2.07241319      -0.41263845       1.42521941
O        2.51261798       0.86586053       1.19826247
C        2.84863399      -1.24789921       2.22669462
O        4.01464550      -0.70911264       2.72618178
C        2.44840888      -2.56369382       2.50602302
C       -2.68376072      -6.42608369       0.55109321
C       -3.05173957      -5.08763093       0.45109688
C       -3.92543871      -4.69840541      -0.56243254
C       -4.43150346      -5.65821212      -1.42967728
C       -4.04739627      -6.97558251      -1.24144501
N       -3.20069862      -7.38495588      -0.27632542
H       -0.19068062      -6.57060782       2.88027647
H       -0.46185581      -2.55571441       0.74173335
H        3.35347437       0.92256475       1.69448669
H        4.42617772      -1.42162245       3.25288627
H       -2.66675326      -4.35771377       1.15534141
H       -4.20144852      -3.65314005      -0.66584735
H       -5.11128123      -5.38762188      -2.22798077
H       -4.42386299      -7.76575936      -1.88428770
C        3.32274126      -3.35541230       3.33205252
C        4.05499463      -4.01847653       4.02385222
Br       5.23898639      -5.09059531       5.14243383
