194
Properties=species:S:1:pos:R:3 pbc="F F F"
C        3.98123746       5.54172334      -4.35652659
O        4.24508723       4.15181713      -4.20725253
C        3.39886240       3.42517057      -3.41176347
C        2.21312960       3.92110563      -2.85925510
C        1.41259087       3.10669998      -2.05034384
C        1.79144161       1.79144161      -1.79144161
C        2.96557762       1.27791001      -2.33131722
C        3.76577679       2.09425824      -3.14183877
C        5.02077747       1.54906475      -3.70150873
N        5.50547097       0.41077617      -3.31403529
N        6.67966410       0.06696320      -3.90873682
C        7.36513541      -1.07329860      -3.54495296
O        7.06061680      -1.92516045      -2.71882894
C        8.66100399      -1.22791646      -4.34885384
O        9.01179362      -0.32034968      -5.09177879
N        9.26018739      -2.45526607      -4.14914576
N       10.36987159      -2.79743486      -4.85637712
C       10.66370441      -4.05899841      -4.84188248
C       11.82765148      -4.57740283      -5.58813594
C       12.87402580      -3.70395823      -5.91310084
C       13.96241914      -4.18172134      -6.63418657
Br      15.39158062      -3.02151772      -7.06167708
C       14.00533340      -5.51197131      -7.04602159
C       12.95839710      -6.38219503      -6.71964623
C       11.86548092      -5.92775906      -5.97414928
O       10.79008633      -6.70165023      -5.62672428
C       10.93133735      -8.11105207      -5.75824144
H        4.79571247       5.97355433      -4.94620548
H        3.96751553       6.04995037      -3.38668397
H        3.04854492       5.70603514      -4.90527248
H        1.87916761       4.93843188      -3.03716178
H        0.49550964       3.51004534      -1.62719319
H        3.26164250       0.25114786      -2.12693815
H        5.54214026       2.16029090      -4.46029800
H        7.10469869       0.66527184      -4.61720886
H        8.79717923      -3.12280053      -3.53449759
H       10.03844835      -4.79228470      -4.30158625
H       12.83361504      -2.66280733      -5.60022583
H       14.84635666      -5.88198726      -7.62782829
H       13.02097942      -7.40441441      -7.07903890
H       11.79295401      -8.47478826      -5.18860479
H       10.99651787      -8.40544063      -6.81041017
H       10.03325176      -8.57512377      -5.33921916
C       -4.52520316      -5.48692383      -3.86736040
O       -4.21690220      -4.14868215      -4.23857254
C       -3.40618608      -3.42698255      -3.40262782
C       -2.74238124      -3.95907551      -2.29203357
C       -1.93842402      -3.14306040      -1.48815027
C       -1.79144161      -1.79144161      -1.79144161
C       -2.44144388      -1.24213214      -2.89122882
C       -3.24546345      -2.06059274      -3.69581762
C       -3.94665984      -1.46942025      -4.85527085
N       -4.00098000      -0.18760212      -5.04170031
N       -4.70625742       0.19213466      -6.14124136
C       -4.92673327       1.52221030      -6.43226679
O       -4.54098247       2.51714025      -5.83044306
C       -5.75719452       1.68545707      -7.71020391
O       -6.22951764       0.68997738      -8.24368247
N       -5.82070854       2.99832206      -8.13168061
N       -6.43926703       3.31168288      -9.30122970
C       -6.17243892       4.49126853      -9.76541809
C       -6.75361897       4.95604404     -11.04080965
C       -7.93071148       4.35943797     -11.51189491
C       -8.47053682       4.77831335     -12.72266091
Br     -10.06919482       3.99859770     -13.36114286
C       -7.83835056       5.76938252     -13.47041564
C       -6.66250872       6.36363224     -12.99697182
C       -6.11592277       5.97381832     -11.76976669
O       -4.96147356       6.48552410     -11.23921091
C       -4.46014621       7.68932792     -11.80770843
H       -5.24359635      -5.87693822      -4.59493771
H       -4.99732061      -5.52668801      -2.88014125
H       -3.63281717      -6.11942942      -3.90760596
H       -2.82695339      -5.00672422      -2.02108367
H       -1.43207348      -3.57343567      -0.62723901
H       -2.32760908      -0.18595405      -3.12616537
H       -4.43871354      -2.16730324      -5.55671238
H       -5.12376772      -0.50070140      -6.76271027
H       -5.31518966       3.70131035      -7.59499699
H       -5.47835554       5.17459257      -9.24398694
H       -8.41694917       3.57790218     -10.93198655
H       -8.24822115       6.08354000     -14.42751654
H       -6.19025406       7.11566670     -13.62101655
H       -5.21394357       8.48302031     -11.77584727
H       -4.09839029       7.52436175     -12.82745888
H       -3.60808258       8.01271349     -11.20197806
C       -5.54573776       3.99457497       4.33917466
O       -4.14724270       4.22988914       4.22702505
C       -3.42708815       3.40523336       3.40347493
C       -3.99172963       2.44777090       2.55398981
C       -3.17587076       1.64240400       1.75135994
C       -1.79144161       1.79144161       1.79144161
C       -1.20930266       2.73763645       2.62786573
C       -2.02750422       3.54399311       3.43037648
C       -1.40384423       4.53829658       4.32921013
N       -0.12579209       4.55863939       4.54585095
N        0.28226182       5.51939830       5.41822764
C        1.59891920       5.61881264       5.81689633
O        2.56192435       4.94503136       5.47117826
C        1.79754503       6.76846907       6.81101732
O        0.81588103       7.36543943       7.23366432
N        3.13078766       7.01583329       7.06902146
N        3.49168665       8.06328828       7.85721222
C        4.73875343       8.40528516       7.78005674
C        5.26517101       9.54260933       8.56094627
C        4.58346773       9.95194192       9.71469424
C        5.06263017      11.03568616      10.44182838
Br       4.16677986      11.58655973      12.01196011
C        6.19967427      11.72050792      10.01855003
C        6.87864168      11.30900190       8.86548808
C        6.42717866      10.20620841       8.13284139
O        7.01585278       9.74617923       6.98483393
C        8.32704466      10.21372322       6.69184817
H       -5.93922330       4.68165097       5.09459801
H       -5.75094018       2.97408357       4.67912612
H       -6.05549923       4.20960500       3.39474831
H       -5.06512173       2.30008218       2.48955737
H       -3.63224344       0.90150085       1.09900387
H       -0.12783665       2.85195309       2.65993877
H       -2.07603023       5.26219247       4.82450646
H       -0.38452370       6.17194057       5.83071512
H        3.82767763       6.45529434       6.58125958
H        5.44109979       7.88282399       7.10602570
H        3.68939696       9.42287193      10.03755857
H        6.56379200      12.58112743      10.57486226
H        7.74671921      11.88370539       8.55861772
H        9.01375319      10.00229603       7.51822770
H        8.32029380      11.27940982       6.44237140
H        8.68456625       9.66963991       5.81227349
C        5.46525813      -3.83860428       4.57562497
O        4.14943109      -4.24063647       4.21408934
C        3.42685032      -3.40199570       3.40695042
C        3.94370516      -2.25528528       2.79449989
C        3.12770400      -1.45177040       1.99016029
C        1.79144161      -1.79144161       1.79144161
C        1.25746800      -2.92744644       2.38989040
C        2.07593261      -3.73159336       3.19434783
C        1.50045279      -4.93009990       3.84079825
N        0.22408784      -5.15723479       3.84895980
N       -0.14217359      -6.28955403       4.50798368
C       -1.46852992      -6.62789679       4.67742290
O       -2.46968405      -6.04489814       4.27907119
C       -1.61671190      -7.93577044       5.46288283
O       -0.61980881      -8.45320218       5.94982935
N       -2.91696495      -8.39896453       5.47206751
N       -3.21205730      -9.59646205       6.04440910
C       -4.36771770     -10.08783966       5.72646652
C       -4.80959977     -11.39452652       6.25345784
C       -4.23469057     -11.88403246       7.43382653
C       -4.63149026     -13.12344965       7.92292498
Br      -3.88125410     -13.78788469       9.52510940
C       -5.57871117     -13.88084124       7.23725361
C       -6.15137888     -13.38894643       6.05828075
C       -5.78392425     -12.13378096       5.56201443
O       -6.27658182     -11.58298109       4.40876111
C       -7.44598235     -12.17191485       3.85259422
H        5.85587873      -4.57620810       5.28338546
H        5.45943416      -2.86600528       5.07871044
H        6.12569412      -3.83134928       3.70280914
H        4.97921742      -1.95524628       2.92029758
H        3.54599855      -0.56257441       1.52417520
H        0.21319354      -3.19084498       2.23568999
H        2.20473818      -5.62504930       4.33294169
H        0.55682670      -6.90241221       4.92794049
H       -3.62074528      -7.86834570       4.96127587
H       -5.04560932      -9.56591321       5.02744601
H       -3.48704943     -11.29612781       7.96195516
H       -5.87491919     -14.85954097       7.60757592
H       -6.86858307     -14.02048412       5.54370285
H       -8.26295006     -12.18810312       4.58161747
H       -7.23797260     -13.17423626       3.46522375
H       -7.76211217     -11.54979036       3.00966896
C       -0.00445707       0.01189536      -1.78238275
H       -0.66409135       0.67374010      -2.43557963
H        0.65740317      -0.63156657      -2.45157240
C       -0.90989263      -0.90692880      -0.91072765
C        0.90977584       0.90977584      -0.90977584
C       -0.00465871       1.77757030       0.00794375
H       -0.66225468       2.44313916      -0.64384735
H        0.64322798       2.43503045       0.67728295
C       -1.78241447       0.00034974      -0.00472694
H       -2.45427497      -0.65498947       0.64260836
H       -2.43311707       0.67328779      -0.65473579
C       -0.91132561       0.90220522       0.91563759
C       -0.01476271      -0.02253852       1.78660255
H       -0.67934791      -0.69751639       2.42135241
H        0.63392994       0.61504881       2.47327442
C        0.01484550      -1.77751727      -0.01636693
H        0.67870853      -2.42144646      -0.68295456
H       -0.62264859      -2.45592969       0.64226336
C        1.78714474       0.01002794       0.00389507
H        2.44202412       0.67113390       0.66197326
H        2.45385902      -0.65136977      -0.64189061
C        0.91606151      -0.90478549       0.90901405
