173
Properties=species:S:1:pos:R:3 pbc="F F F"
C        0.00000000       0.00000000       0.00000000
C        3.07133343       4.63181931      -3.44662257
O        3.33518321       3.24191311      -3.29734851
C        2.48895838       2.51526655      -2.50185944
C        1.30322558       3.01120160      -1.94935107
C        0.50268685       2.19679595      -1.14043982
C        0.88153758       0.88153758      -0.88153758
C        2.05567359       0.36800598      -1.42141319
C        2.85587277       1.18435422      -2.23193475
C        4.11087344       0.63916072      -2.79160471
N        4.59556695      -0.49912785      -2.40413127
N        5.76976008      -0.84294083      -2.99883280
C        6.45523139      -1.98320263      -2.63504893
O        6.15071277      -2.83506448      -1.80892491
C        7.75109996      -2.13782049      -3.43894981
O        8.10188960      -1.23025371      -4.18187476
N        8.35028337      -3.36517009      -3.23924174
N        9.45996757      -3.70733889      -3.94647309
C        9.75380038      -4.96890243      -3.93197846
C       10.91774746      -5.48730686      -4.67823192
C       11.96412178      -4.61386225      -5.00319682
C       13.05251512      -5.09162536      -5.72428255
Br      14.48167660      -3.93142174      -6.15177306
C       13.09542938      -6.42187533      -6.13611757
C       12.04849308      -7.29209906      -5.80974220
C       10.95557690      -6.83766309      -5.06424525
O        9.88018230      -7.61155425      -4.71682025
C       10.02143333      -9.02095609      -4.84833742
H        3.88580845       5.06365031      -4.03630145
H        3.05761151       5.14004635      -2.47677994
H        2.13864089       4.79613112      -3.99536846
H        0.96926359       4.02852786      -2.12725776
H       -0.41439438       2.60014131      -0.71728916
H        2.35173847      -0.65875616      -1.21703412
H        4.63223624       1.25038688      -3.55039397
H        6.19479466      -0.24463218      -3.70730484
H        7.88727520      -4.03270455      -2.62459357
H        9.12854433      -5.70218872      -3.39168222
H       11.92371102      -3.57271136      -4.69032180
H       13.93645264      -6.79189128      -6.71792426
H       12.11107540      -8.31431844      -6.16913488
H       10.88304999      -9.38469229      -4.27870076
H       10.08661384      -9.31534465      -5.90050615
H        9.12334774      -9.48502780      -4.42931514
C       -3.08615001      -4.63625369      -3.42737161
O       -3.33448708      -3.24145624      -3.29850150
C       -2.48912731      -2.51542317      -2.50153389
C       -1.31654764      -3.01898607      -1.92824455
C       -0.51593920      -2.20447828      -1.11950514
C       -0.88153758      -0.88153758      -0.88153758
C       -2.04245849      -0.36036616      -1.44226811
C       -2.84273181      -1.17684046      -2.25258946
C       -4.08386726      -0.62326388      -2.83450773
N       -4.55907736       0.52563705      -2.46713005
N       -5.72149452       0.87643380      -3.08059133
C       -6.39713573       2.02948215      -2.73942412
O       -6.09221670       2.88775564      -1.92011215
C       -7.68099264       2.19000422      -3.56124087
O       -8.03389260       1.27763952      -4.29725757
N       -8.26725658       3.42702250      -3.38412094
N       -9.36381109       3.77398058      -4.10927126
C       -9.64206710       5.03914541      -4.11395472
C      -10.79020158       5.56249360      -4.88096454
C      -11.84329553       4.69800611      -5.20816693
C      -12.91670350       5.18010334      -5.94857214
Br     -14.35483591       4.03233219      -6.37952419
C      -12.93798033       6.50554884      -6.37724012
C      -11.88438195       7.36682658      -6.04858086
C      -10.80646158       6.90830129      -5.28399877
O       -9.72586778       7.67317334      -4.93275386
C       -9.84792847       9.08245885      -5.08334503
H       -3.89862493      -5.06534395      -4.02179133
H       -3.09068782      -5.13249432      -2.45125566
H       -2.14889711      -4.81884559      -3.96239777
H       -0.99311724      -4.04247955      -2.08945242
H        0.39077412      -2.61377222      -0.68003800
H       -2.32820569       0.67242530      -1.25423604
H       -4.60342884      -1.23743291      -3.59215534
H       -6.14520068       0.27462209      -3.78688874
H       -7.80356660       4.09641398      -2.77201160
H       -9.01442078       5.77135716      -3.57497421
H      -11.81970453       3.66041387      -4.88203080
H      -13.76711097       6.87860725      -6.97398191
H      -11.92980471       8.38518365      -6.42127077
H      -10.71188992       9.46383053      -4.52899907
H       -9.89649168       9.36450149      -6.13978515
H       -8.94935527       9.54063133      -4.65891114
C       -4.38109293       2.80791233       3.96077005
O       -3.24688545       3.34040731       3.28715205
C       -2.51531320       2.48900739       2.50176378
C       -2.88978282       1.17565915       2.19833629
C       -2.07433038       0.37402063       1.39157161
C       -0.88153758       0.88153758       0.88153758
C       -0.49069996       2.18457978       1.16981303
C       -1.30863906       2.98645037       1.97707230
C       -0.88211154       4.36612529       2.29340205
N        0.30864599       4.79569324       2.01352311
N        0.54794588       6.07969114       2.39390679
C        1.79152267       6.65661644       2.24198392
O        2.80895250       6.17814685       1.75537885
C        1.80613494       8.09957933       2.75878490
O        0.82015598       8.53275129       3.34091535
N        2.97379102       8.76147865       2.43666739
N        3.11732974      10.07984992       2.73658160
C        4.08625028      10.68114276       2.12198393
C        4.34286156      12.12013803       2.33139605
C        3.88356576      12.73139447       3.50562764
C        4.10361627      14.09054885       3.69823972
Br       3.50931017      14.92516042       5.28617766
C        4.75873147      14.84278114       2.72562194
C        5.21655718      14.22912329       1.55357011
C        5.02680155      12.85812554       1.35083507
O        5.42303867      12.17950628       0.22898069
C        6.34719332      12.83057342      -0.63456544
H       -4.78809239       3.59629854       4.60136928
H       -4.10230687       1.96732945       4.60480148
H       -5.16068629       2.52165413       3.24780005
H       -3.81148757       0.74123417       2.57232746
H       -2.38017665      -0.64549624       1.16835568
H        0.44203631       2.57943123       0.77262151
H       -1.61919475       5.01971750       2.79410484
H       -0.17968821       6.64059914       2.83717997
H        3.67506550       8.26302214       1.89120758
H        4.73005957      10.14989409       1.39820331
H        3.36240437      12.14466621       4.25905962
H        4.91334391      15.91011417       2.86571537
H        5.70193315      14.85573035       0.81209464
H        7.25289906      13.12277965      -0.09282213
H        5.88597891      13.68961440      -1.13186015
H        6.63742584      12.11512879      -1.41006788
C        4.57390522      -2.95296967       3.62290042
O        3.23888153      -3.32898733       3.30657596
C        2.51706134      -2.49262654       2.49639650
C        3.04702702      -1.37644491       1.84030633
C        2.23101252      -0.57261805       1.03629206
C        0.88153758      -0.88153758       0.88153758
C        0.33436957      -1.98692809       1.52379511
C        1.15283252      -2.79144929       2.32787993
C        0.56384336      -3.95694117       3.02085434
N       -0.71732414      -4.14962131       3.06827319
N       -1.09518307      -5.25423193       3.76660319
C       -2.42489283      -5.55251292       3.97945760
O       -3.42082543      -4.95354512       3.59185352
C       -2.58601354      -6.83509109       4.80315174
O       -1.59025779      -7.36611974       5.27764870
N       -3.89716497      -7.26300183       4.85851815
N       -4.20791433      -8.43690051       5.47011560
C       -5.38404239      -8.90534483       5.19557397
C       -5.84553045     -10.18561655       5.76858642
C       -5.25223151     -10.65943422       6.94625363
C       -5.66793079     -11.87467250       7.47843059
Br      -4.89271220     -12.51700852       9.07773159
C       -6.65250308     -12.62407656       6.83809813
C       -7.24346268     -12.14789523       5.66170367
C       -6.85686988     -10.91632240       5.12270654
O       -7.36565604     -10.38274463       3.96835971
C       -8.56441370     -10.95450644       3.45872191
H        4.96397004      -3.68208370       4.33970647
H        4.60681661      -1.96780620       4.09981499
H        5.21076282      -2.98605768       2.73331997
H        4.09298273      -1.10099530       1.93107117
H        2.65969990       0.29266961       0.53600580
H       -0.72014774      -2.22626746       1.40389672
H        1.26270644      -4.65741473       3.51289592
H       -0.40139398      -5.87440772       4.18445357
H       -4.60029547      -6.72724313       4.35221656
H       -6.06655480      -8.38385952       4.50073311
H       -4.47571561     -10.07816723       7.43886985
H       -6.96407135     -13.58455412       7.24200285
H       -7.99033579     -12.77322530       5.18300233
H       -9.36176647     -10.92990536       4.20891958
H       -8.39296279     -11.97176124       3.09297689
H       -8.88665256     -10.34629625       2.60799138
