194
Properties=species:S:1:pos:R:3 pbc="F F F"
C        1.79133232       1.79133232      -1.79133232
C        1.31302514       3.01796573      -2.24362881
C        2.12184799       3.82555968      -3.05172984
C        3.41466659       3.41746224      -3.41519711
C        3.87388175       2.17520224      -2.94661986
C        3.06904556       1.36468192      -2.13923116
C        4.25346188       4.26285776      -4.26342267
C        4.08474757       5.48284207      -4.89073766
C        5.28692674       5.75352801      -5.59148089
C        6.12990831       4.69116389      -5.34771077
C        7.46502947       4.38942792      -5.77480918
N        8.08733552       5.14301193      -6.62641737
C        9.39221838       4.75900605      -6.97776159
C       10.42826006       5.69117690      -6.80469889
C       11.76213813       5.39076132      -7.11551232
C       11.98511927       4.11283536      -7.60821915
O       13.17959559       3.55422841      -7.95540565
C       12.84342681       2.29295313      -8.38294760
N       11.54962062       2.02548812      -8.34271830
C       10.99531567       3.17151820      -7.83256390
C        9.66753506       3.49351053      -7.52639558
C       13.94142246       1.44153627      -8.83014245
C       13.67277678       0.34165695      -9.66007586
C       14.70442006      -0.49351473     -10.09931894
C       16.01393320      -0.23995773      -9.69938042
Br      17.41040567      -1.37101771     -10.28454515
C       16.30112655       0.84106534      -8.86847556
C       15.26787330       1.68050156      -8.43908940
O        5.50631181       3.78748679      -4.53691088
H        0.31533893       3.35638983      -1.97606131
H        1.72395905       4.77822969      -3.39223258
H        4.86935194       1.82151592      -3.20849434
H        3.45050723       0.40810264      -1.79221516
H        3.20130368       6.10430711      -4.85724688
H        5.52024174       6.61672044      -6.20095856
H        7.92738796       3.48458105      -5.33948152
H       10.18610214       6.67756378      -6.41284298
H       12.56571022       6.10303817      -6.97738435
H        8.88059712       2.77047421      -7.70575891
H       12.65018209       0.13425968      -9.97402517
H       14.47328207      -1.33422860     -10.74774950
H       17.32092414       1.03895601      -8.54753244
H       15.50735077       2.51683220      -7.78546764
C       -1.79133232      -1.79133232      -1.79133232
C       -1.56677538      -3.16421945      -1.84362485
C       -2.37542574      -3.97169470      -2.65201707
C       -3.41528567      -3.41744311      -3.41459717
C       -3.62107880      -2.02946592      -3.34515913
C       -2.81528446      -1.21860109      -2.53907309
C       -4.25387484      -4.26492084      -4.26094663
C       -4.28408630      -5.61392660      -4.56031439
C       -5.34620190      -5.80652761      -5.47920612
C       -5.91514266      -4.56855386      -5.68508646
C       -7.00962012      -4.12261138      -6.49703507
N       -7.61931519      -4.92846770      -7.30898193
C       -8.67930080      -4.39133939      -8.05834582
C       -9.93489699      -5.01480727      -7.97443160
C      -11.05225905      -4.54011358      -8.67603915
C      -10.82978171      -3.41672380      -9.45966827
O      -11.74099332      -2.73624294     -10.21199338
C      -11.00841768      -1.72564455     -10.78526532
N       -9.72596309      -1.72659816     -10.46526579
C       -9.60498703      -2.78853503      -9.60587570
C       -8.49804547      -3.28355753      -8.90583816
C      -11.73200413      -0.81450530     -11.66659174
C      -11.02308147      -0.04714025     -12.60428787
C      -11.68989306       0.83720418     -13.45753538
C      -13.07331820       0.96899436     -13.36903204
Br     -13.97771943       2.16903460     -14.51524828
C      -13.79503870       0.22346081     -12.43908956
C      -13.12580689      -0.66780098     -11.59385638
O       -5.25686165      -3.63192065      -4.94192718
H       -0.76777571      -3.61747480      -1.26253956
H       -2.17829494      -5.04053595      -2.67559042
H       -4.41517763      -1.56077717      -3.92340740
H       -2.99722267      -0.14772599      -2.50587636
H       -3.61880281      -6.37190869      -4.17214617
H       -5.66666412      -6.73217017      -5.93908645
H       -7.29937535      -3.06108943      -6.39098576
H      -10.04286644      -5.89319245      -7.34045001
H      -12.02412462      -5.01254428      -8.60946384
H       -7.53067076      -2.80830706      -9.01785243
H       -9.93999081      -0.14161379     -12.67686234
H      -11.12080453       1.41483791     -14.18083635
H      -14.87444268       0.32815554     -12.36112546
H      -13.70268451      -1.23824672     -10.86871937
C       -1.79133232       1.79133232       1.79133232
C       -3.17614998       1.65864205       1.73982765
C       -3.98360948       2.46717115       2.54835688
C       -3.41732328       3.41436296       3.41563970
C       -2.01756860       3.52946788       3.44866737
C       -1.20674102       2.72396036       2.64225726
C       -4.26566328       4.25959166       4.25448738
C       -5.62971343       4.40564693       4.42296693
C       -5.81677627       5.42511793       5.39004144
C       -4.55892142       5.84097162       5.76888994
C       -4.09948300       6.83152856       6.69825501
N       -4.92833397       7.61828546       7.31014539
C       -4.37494885       8.55309147       8.20094569
C       -4.83631289       8.56046693       9.52735603
C       -4.33183542       9.44849002      10.48808633
C       -3.35043514      10.31935035      10.03638829
O       -2.67303345      11.25427194      10.76192426
C       -1.83361758      11.83982418       9.84588578
N       -1.93884908      11.36032291       8.61865506
C       -2.88890226      10.37782786       8.73266765
C       -3.41243032       9.49038284       7.78462801
C       -0.96670527      12.90396380      10.34243210
C       -0.41089762      13.82406077       9.43955121
C        0.42677711      14.85023515       9.88676624
C        0.72462699      14.95497890      11.24300398
Br       1.86277385      16.33596725      11.85073971
C        0.19078697      14.04663155      12.15482287
C       -0.65500298      13.02726056      11.70520072
O       -3.61552126       5.13058416       5.08460406
H       -3.63887155       0.93253351       1.07638501
H       -5.06207218       2.34412676       2.48822237
H       -1.53983262       4.25390186       4.10562772
H       -0.12676356       2.83580923       2.68825224
H       -6.40222181       3.85221776       3.90841810
H       -6.75135774       5.81441089       5.77215210
H       -3.00718876       6.88433312       6.85992866
H       -5.60842864       7.85014783       9.81793242
H       -4.67873492       9.45374881      11.51364902
H       -3.06805822       9.53078868       6.75798335
H       -0.63592849      13.74627871       8.37625974
H        0.83891374      15.55549594       9.17022078
H        0.42616084      14.11978907      13.21378437
H       -1.05894028      12.32200145      12.42870888
C        1.79133232      -1.79133232       1.79133232
C        3.17453484      -1.63655031       1.76353453
C        3.98199459      -2.44509587       2.57204704
C        3.41730291      -3.41433735       3.41568568
C        2.01917647      -3.55147929       3.42504809
C        1.20836406      -2.74603957       2.61855502
C        4.26574039      -4.25941838       4.25458354
C        5.62915210      -4.38707400       4.44210119
C        5.81722196      -5.41854017       5.39617351
C        4.56033973      -5.85958097       5.74886228
C        4.10219240      -6.87150295       6.65557122
N        4.93372521      -7.65487777       7.26816184
C        4.38137581      -8.61190552       8.13570468
C        4.82232483      -8.63291539       9.46889563
C        4.31706333      -9.54351194      10.40783651
C        3.35646893     -10.42220829       9.92749655
O        2.68267877     -11.37867683      10.62787405
C        1.86672202     -11.96268800       9.68991752
N        1.98332357     -11.46249428       8.47200919
C        2.91603144     -10.46739290       8.61597343
C        3.44015263      -9.55727942       7.69000912
C        1.00901236     -13.04768057      10.15640825
C        0.48162363     -13.96199567       9.23089029
C       -0.34668966     -15.00781074       9.64910319
C       -0.66370858     -15.13831944      10.99874503
Br      -1.78934521     -16.54599839      11.56727993
C       -0.15823608     -14.23622904      11.93267449
C        0.67833389     -13.19705315      11.51207721
O        3.61659384      -5.15318870       5.06092693
H        3.63600550      -0.89312026       1.11866432
H        5.05919957      -2.30453864       2.53068310
H        1.54276862      -4.29336497       4.06322861
H        0.12968731      -2.87520622       2.64593149
H        6.40074272      -3.81384074       3.94827420
H        6.75178272      -5.79932646       5.78681156
H        3.00849787      -6.94363776       6.79931490
H        5.57867552      -7.91542426       9.78240911
H        4.64817363      -9.55946396      11.43849516
H        3.11229973      -9.58692522       6.65760530
H        0.72175290     -13.86414343       8.17257060
H       -0.73666946     -15.70804305       8.91542938
H       -0.40871151     -14.32954937      12.98657473
H        1.06000918     -12.49705762      12.25258381
C       -0.00445707       0.01189536      -1.78238275
H       -0.66409135       0.67374010      -2.43557963
H        0.65740317      -0.63156657      -2.45157240
C       -0.90989263      -0.90692880      -0.91072765
C        0.90977584       0.90977584      -0.90977584
C       -0.00465871       1.77757030       0.00794375
H       -0.66225468       2.44313916      -0.64384735
H        0.64322798       2.43503045       0.67728295
C       -1.78241447       0.00034974      -0.00472694
H       -2.45427497      -0.65498947       0.64260836
H       -2.43311707       0.67328779      -0.65473579
C       -0.91132561       0.90220522       0.91563759
C       -0.01476271      -0.02253852       1.78660255
H       -0.67934791      -0.69751639       2.42135241
H        0.63392994       0.61504881       2.47327442
C        0.01484550      -1.77751727      -0.01636693
H        0.67870853      -2.42144646      -0.68295456
H       -0.62264859      -2.45592969       0.64226336
C        1.78714474       0.01002794       0.00389507
H        2.44202412       0.67113390       0.66197326
H        2.45385902      -0.65136977      -0.64189061
C        0.91606151      -0.90478549       0.90901405
