173
Properties=species:S:1:pos:R:3 pbc="F F F"
C        0.00000000       0.00000000       0.00000000
C        0.88142829       0.88142829      -0.88142829
C        0.40312112       2.10806171      -1.33372479
C        1.21194397       2.91565566      -2.14182581
C        2.50476256       2.50755822      -2.50529309
C        2.96397773       1.26529822      -2.03671584
C        2.15914154       0.45477789      -1.22932714
C        3.34355786       3.35295374      -3.35351865
C        3.17484354       4.57293804      -3.98083363
C        4.37702272       4.84362398      -4.68157686
C        5.22000429       3.78125987      -4.43780675
C        6.55512545       3.47952389      -4.86490516
N        7.17743149       4.23310791      -5.71651335
C        8.48231435       3.84910202      -6.06785757
C        9.51835603       4.78127288      -5.89479487
C       10.85223411       4.48085729      -6.20560830
C       11.07521524       3.20293134      -6.69831512
O       12.26969156       2.64432439      -7.04550163
C       11.93352279       1.38304910      -7.47304358
N       10.63971660       1.11558409      -7.43281427
C       10.08541164       2.26161418      -6.92265987
C        8.75763103       2.58360651      -6.61649155
C       13.03151843       0.53163224      -7.92023843
C       12.76287276      -0.56824707      -8.75017184
C       13.79451604      -1.40341876      -9.18941491
C       15.10402917      -1.14986175      -8.78947640
Br      16.50050165      -2.28092173      -9.37464113
C       15.39122252      -0.06883869      -7.95857154
C       14.35796928       0.77059753      -7.52918537
O        4.59640778       2.87758277      -3.62700685
H       -0.59456509       2.44648580      -1.06615729
H        0.81405502       3.86832566      -2.48232855
H        3.95944792       0.91161189      -2.29859031
H        2.54060320      -0.50180139      -0.88231113
H        2.29139965       5.19440308      -3.94734286
H        4.61033771       5.70681642      -5.29105454
H        7.01748394       2.57467703      -4.42957749
H        9.27619811       5.76765976      -5.50293895
H       11.65580620       5.19313414      -6.06748033
H        7.97069310       1.86057019      -6.79585489
H       11.74027807      -0.77564434      -9.06412114
H       13.56337805      -2.24413263      -9.83784548
H       16.41102012       0.12905198      -7.63762842
H       14.59744675       1.60692817      -6.87556362
C       -0.88142829      -0.88142829      -0.88142829
C       -0.32379329      -1.96216008      -1.55895424
C       -1.13266608      -2.76986552      -2.36689384
C       -2.50449126      -2.50744238      -2.50568023
C       -3.04300350      -1.41067343      -1.81231485
C       -2.23850983      -0.60057134      -1.00416540
C       -3.34380628      -3.35155062      -3.35467334
C       -3.11587530      -4.44798023      -4.16475969
C       -4.36238817      -4.79751180      -4.74232360
C       -5.28738758      -3.90399614      -4.24768719
C       -6.69660003      -3.74414309      -4.45881138
N       -7.33516483      -4.46694940      -5.32493852
C       -8.71413157      -4.23140090      -5.45374147
C       -9.59150296      -5.31532467      -5.28759614
C      -10.98283245      -5.17100785      -5.38485940
C      -11.43014954      -3.88652458      -5.65978759
O      -12.72174247      -3.46435305      -5.77342206
C      -12.60861402      -2.12496882      -6.05603263
N      -11.36542924      -1.68371661      -6.13896912
C      -10.60659786      -2.79382111      -5.86926672
C       -9.21924081      -2.95961751      -5.77887077
C      -13.85594297      -1.38914481      -6.23830132
C      -13.84621117      -0.16796171      -6.93062464
C      -15.02523399       0.56033633      -7.11561453
C      -16.22311779       0.07594696      -6.59647298
Br     -17.81782043       1.06116217      -6.83756278
C      -16.25326487      -1.12946957      -5.89822094
C      -15.07353073      -1.86050538      -5.72371606
O       -4.67195233      -3.02854276      -3.40050232
H        0.73594158      -2.18614225      -1.46787733
H       -0.67211104      -3.60680923      -2.88578897
H       -4.10164637      -1.17209373      -1.89591002
H       -2.68249232       0.24173487      -0.48035550
H       -2.16645884      -4.93712437      -4.32956239
H       -4.57098706      -5.60279053      -5.43443108
H       -7.20108765      -2.97506838      -3.84558243
H       -9.17580331      -6.29826692      -5.07272660
H      -11.66411446      -6.00166228      -5.25064394
H       -8.56147936      -2.11564440      -5.94999442
H      -12.91218471       0.21972670      -7.33629686
H      -14.99445787       1.49917305      -7.66180609
H      -17.18473059      -1.50829181      -5.48467812
H      -15.11230385      -2.79686414      -5.17077055
C       -0.88142829       0.88142829       0.88142829
C       -2.04802450       0.36157388       1.43530923
C       -2.85562193       1.17039915       2.24340436
C       -2.50668394       2.50415754       2.50677239
C       -1.32505596       3.00533156       1.93560427
C       -0.51516450       2.20093056       1.12715151
C       -3.35638915       3.34593525       3.34770584
C       -4.55712020       3.16389720       4.00759782
C       -4.86606231       4.39255060       4.64361065
C       -3.83434643       5.25674150       4.34798298
C       -3.57888578       6.62388633       4.69678239
N       -4.45071762       7.32802280       5.34831233
C       -4.10147933       8.65696569       5.64082892
C       -4.13911652       9.07396794       6.98133932
C       -3.79413140      10.37700279       7.36756551
C       -3.41779874      11.22390880       6.33475416
O       -3.00634023      12.52021549       6.43296185
C       -2.76643879      12.89086268       5.13231399
N       -3.00324866      11.94602719       4.23883912
C       -3.40045845      10.87352006       4.99570719
C       -3.75875807       9.57086499       4.62810604
C       -2.30575042      14.25925211       4.91838658
C       -2.44500148      14.84811532       3.65168072
C       -2.00802870      16.15532210       3.41716139
C       -1.41564213      16.87942134       4.44858034
Br      -0.81651243      18.64400273       4.13370588
C       -1.25955105      16.31050109       5.71090324
C       -1.70701969      15.00599658       5.94473591
O       -2.91377689       4.62145501       3.56576550
H       -2.34004834      -0.66822245       1.24625211
H       -3.76168414       0.74025645       2.66276866
H       -1.02106942       4.03519523       2.11338548
H        0.39284618       2.61600291       0.69795622
H       -5.14783002       2.25916993       4.02614565
H       -5.73229452       4.62796919       5.24794495
H       -2.60415996       7.03788685       4.37969165
H       -4.44291930       8.35944494       7.74443259
H       -3.81449768      10.70175565       8.40016734
H       -3.75942501       9.28474762       3.58294555
H       -2.90380384      14.28654726       2.83840377
H       -2.13364466      16.59290826       2.43053798
H       -0.79106177      16.86914728       6.51749147
H       -1.57233516      14.57350753       6.93409585
C        0.88142829      -0.88142829       0.88142829
C        2.01049966      -0.34247906       1.49192889
C        2.81812270      -1.15132000       2.29998274
C        2.50659436      -2.50416345       2.50685607
C        1.36244086      -3.02435909       1.87919183
C        0.55269001      -2.22000119       1.07055538
C        3.35631854      -3.34564933       3.34806237
C        4.52755709      -3.14663591       4.05442222
C        4.85719812      -4.38546005       4.65956540
C        3.86610004      -5.27273876       4.30023211
C        3.64625483      -6.65876110       4.59453856
N        4.51964015      -7.35553256       5.25188005
C        4.20668012      -8.70457569       5.48801812
C        4.21412611      -9.16583220       6.81446547
C        3.90141844     -10.49206984       7.14521142
C        3.58880924     -11.31506701       6.07258545
O        3.21902369     -12.62690985       6.11358403
C        3.03523689     -12.96048018       4.79389841
N        3.26899823     -11.97822338       3.94089336
C        3.60387324     -10.91972531       4.74608714
C        3.92927567      -9.59406434       4.43438909
C        2.62910010     -14.33525045       4.51903855
C        2.83039302     -14.87537993       3.23902457
C        2.44652919     -16.18754456       2.94643845
C        1.84545099     -16.96583845       3.93235438
Br       1.31796654     -18.73747794       3.53877656
C        1.62816657     -16.44603730       5.20675150
C        2.02262977     -15.13620028       5.49892214
O        2.95072751      -4.64187267       3.50839723
H        2.27313989       0.70231244       1.34725055
H        3.69449418      -0.70600585       2.76420921
H        1.08822776      -4.06922780       2.01219457
H       -0.32581862      -2.64998956       0.59694201
H        5.08594876      -2.22398724       4.12320960
H        5.71047898      -4.61261427       5.28511541
H        2.69735292      -7.09373611       4.23064943
H        4.46777226      -8.46822151       7.61080305
H        3.89865932     -10.85119398       8.16656738
H        3.95478564      -9.27240350       3.39992904
H        3.29638014     -14.27134364       2.46103109
H        2.61972657     -16.58662770       1.95073664
H        1.15262515     -17.04724685       5.97782852
H        1.84045822     -14.74260301       6.49687731
