189
Properties=species:S:1:pos:R:3 pbc="F F F"
C        0.00000000       0.00000000       0.00000000
O        3.13257547       8.19528684      -8.98316883
C        2.51521101       7.68518474      -8.04592921
N        2.01138382       6.41350232      -8.17739077
N        1.28693326       5.81023122      -7.20358784
C        1.04529333       4.53651114      -7.31010104
C        1.50921343       3.65372163      -8.44572217
C        0.31897770       3.86980071      -6.16295506
C        1.26513394       3.26157355      -5.15150625
O        2.47893076       3.23818950      -5.32443524
N        0.59040236       2.71645247      -4.07020947
C        1.17185692       2.19853683      -2.89428039
C        2.49207831       2.45360232      -2.51280797
C        3.00137593       1.93093196      -1.32019610
C        2.19803643       1.13706988      -0.50516912
C        0.88231442       0.88231442      -0.88231442
C        0.36148385       1.41907960      -2.06143532
C        2.26896730       8.43255924      -6.73898998
O        2.94339967       7.77999312      -5.67148857
C        3.11697925       8.44968834      -4.49195680
C        2.79428514       9.79254627      -4.27356175
C        3.07087051      10.39672606      -3.04278909
C        3.65800194       9.65565225      -2.02234755
C        3.96138251       8.31049751      -2.21494829
C        3.69775671       7.69834197      -3.45109293
C        3.99187768       6.23285875      -3.62965087
H        2.27371518       5.92638704      -9.02599353
H        1.27402990       4.11249649      -9.40957090
H        1.00478971       2.68435382      -8.40597956
H        2.58731419       3.49340918      -8.36362471
H       -0.33311415       3.08465009      -6.55941043
H       -0.30698138       4.61516641      -5.65801887
H       -0.41097101       2.60079189      -4.16297124
H        3.14617271       3.07828458      -3.11459788
H        4.02752716       2.14667251      -1.03206601
H        2.60494574       0.72639156       0.41491384
H       -0.66806286       1.20623232      -2.33457013
H        1.19206584       8.47952534      -6.54428203
H        2.65706693       9.44397401      -6.90011614
H        2.33696843      10.40754560      -5.04069087
H        2.82918387      11.44612418      -2.89596568
H        4.40747400       7.73392209      -1.40818724
H        4.53160908       6.05207452      -4.56450545
H        3.05492023       5.66712629      -3.63456087
H        4.61641224       5.84882352      -2.81598256
C        3.95136114      10.28330072      -0.75996972
C        4.19704948      10.80895631       0.29727171
Br       4.59430673      11.65889695       2.00674168
O       -9.53729072      -7.46970747      -3.30403295
C       -8.92764765      -6.53064325      -2.78803406
N       -7.89146233      -6.78790329      -1.92291129
N       -7.20803650      -5.80440605      -1.28830977
C       -6.10502422      -6.11446519      -0.67241610
C       -5.50767160      -7.50086955      -0.60011607
C       -5.31291064      -4.98286754      -0.05595529
C       -4.24613824      -4.44708230      -0.98499320
O       -4.00692743      -4.96336315      -2.07126492
N       -3.57495734      -3.36494648      -0.43716048
C       -2.62522548      -2.55084324      -1.08860542
C       -2.46220109      -2.51986808      -2.47641943
C       -1.51911737      -1.67046008      -3.06292654
C       -0.72123958      -0.85414247      -2.26489338
C       -0.88231442      -0.88231442      -0.88231442
C       -1.83718222      -1.71272154      -0.29209501
C       -9.30148104      -5.07717718      -3.06185830
O       -8.23706312      -4.42057346      -3.73724477
C       -8.48280000      -3.22399061      -4.35183377
C       -9.74224775      -2.63172874      -4.48641667
C       -9.88947615      -1.43152368      -5.18938583
C       -8.77537427      -0.81309078      -5.74753669
C       -7.51060161      -1.37625277      -5.59997393
C       -7.35463610      -2.58695684      -4.90559868
C       -5.97572354      -3.16085969      -4.71780408
H       -7.62445624      -7.76159074      -1.84004877
H       -6.26489112      -8.23020925      -0.30099692
H       -4.70396893      -7.53184783       0.14069367
H       -5.09720873      -7.77052599      -1.57661336
H       -4.83916340      -5.33717932       0.86539636
H       -5.99973569      -4.16771489       0.20124669
H       -3.71443013      -3.18812147       0.54975948
H       -3.07380593      -3.13169846      -3.13355078
H       -1.41111700      -1.65033482      -4.14481386
H        0.01635572      -0.20451081      -2.72826837
H       -1.94430269      -1.71725708       0.78882018
H       -9.52624255      -4.57488075      -2.11474990
H      -10.20498038      -5.11651220      -3.67966450
H      -10.63723978      -3.07930158      -4.06866356
H      -10.87825799      -0.99393535      -5.29908039
H       -6.64245984      -0.88005061      -6.02707288
H       -5.95796173      -4.22745227      -4.96277505
H       -5.65627472      -3.01984978      -3.68048289
H       -5.24571767      -2.66727502      -5.36822563
C       -8.93166563       0.41689733      -6.47986329
C       -9.06255964       1.44701238      -7.09318682
Br      -9.27420419       3.11262128      -8.08487909
O      -10.21927325       6.12238794       3.96936995
C       -9.51608255       5.21979493       3.51044747
N       -8.74696405       5.45835014       2.39696272
N       -7.98511210       4.49964552       1.81599469
C       -7.11800452       4.85864951       0.91525148
C       -6.88137504       6.27707074       0.45021145
C       -6.21475929       3.78292704       0.35404714
C       -4.89934645       3.68443569       1.09443160
O       -4.58809681       4.47300033       1.98045837
N       -4.11024998       2.64930610       0.61750822
C       -2.89394257       2.19910333       1.17162823
C       -2.47288154       2.52055738       2.46504967
C       -1.26684702       2.02039629       2.96526068
C       -0.46473698       1.20487300       2.17066545
C       -0.88231442       0.88231442       0.88231442
C       -2.09590238       1.36127968       0.38481671
C       -9.48626351       3.82548870       4.12876431
O       -8.19237464       3.55256552       4.64994120
C       -8.03618488       2.50615609       5.51628341
C       -9.07702547       1.73732499       6.04604270
C       -8.80948122       0.72620832       6.97469613
C       -7.49877899       0.47189035       7.36533240
C       -6.44854376       1.21092306       6.82736149
C       -6.70857144       2.23567759       5.90294259
C       -5.55930285       2.99690765       5.29817680
H       -8.73240079       6.41873061       2.07496435
H       -7.82869581       6.76356235       0.20383913
H       -6.25885211       6.28500280      -0.44873182
H       -6.37001734       6.83661097       1.23771977
H       -6.01564542       3.99652281      -0.70122186
H       -6.73014781       2.81724799       0.41880810
H       -4.38620951       2.22643003      -0.25984741
H       -3.07606777       3.14289807       3.12008933
H       -0.95776104       2.27127904       3.97722560
H        0.47598551       0.82880637       2.56360260
H       -2.40036466       1.09589747      -0.62352254
H       -9.76105307       3.08512578       3.36969435
H      -10.24322448       3.83771173       4.92022087
H      -10.11287713       1.90168711       5.77064067
H       -9.63221547       0.14969606       7.38936220
H       -5.42535711       0.99728492       7.12694130
H       -5.74323393       4.07539284       5.32956228
H       -5.41465681       2.68197484       4.25997574
H       -4.62708597       2.81167376       5.84245859
C       -7.22754497      -0.56257067       8.32965729
C       -7.00038647      -1.42893177       9.13727939
Br      -6.63309039      -2.82976441      10.44313601
O        3.11567298      -8.34719115       8.84816701
C        2.50943288      -7.82851976       7.90837231
N        1.96877654      -6.57423789       8.05926248
N        1.25399544      -5.96426094       7.08249594
C        0.97593741      -4.70049707       7.21547103
C        1.38671258      -3.83647319       8.38547145
C        0.26209227      -4.02256887       6.06707234
C        1.21761162      -3.36341862       5.09718350
O        2.42547889      -3.31324093       5.30283568
N        0.55684073      -2.80741050       4.01281308
C        1.15456305      -2.24357658       2.86653451
C        2.49052012      -2.45417934       2.51378914
C        3.01644045      -1.88701769       1.34904586
C        2.21365503      -1.09283868       0.53378171
C        0.88231442      -0.88231442       0.88231442
C        0.34559245      -1.46350127       2.03290505
C        2.31702018      -8.54704016       6.57645619
O        3.00127504      -7.84912260       5.54448372
C        3.22303769      -8.48253954       4.35304715
C        2.94188047      -9.82702233       4.09149036
C        3.26616373     -10.39094309       2.85327884
C        3.85960952      -9.60808715       1.86830507
C        4.12207281      -8.26112373       2.10363176
C        3.81038940      -7.68904010       3.34776211
C        4.06076697      -6.22169753       3.57192279
H        2.19603579      -6.10320864       8.92685131
H        1.13893928      -4.32661587       9.33054214
H        0.85791854      -2.87976649       8.35743806
H        2.46193830      -3.64619866       8.33621112
H       -0.42066078      -3.26535800       6.46624915
H       -0.33057695      -4.77020589       5.52657495
H       -0.44931580      -2.72019995       4.08190798
H        3.14518656      -3.07749266       3.11637595
H        4.05507025      -2.06840958       1.08278584
H        2.63318115      -0.64747906      -0.36423674
H       -0.69596571      -1.28469023       2.28401507
H        1.24714390      -8.61666359       6.35206572
H        2.72754648      -9.55199818       6.72161243
H        2.48136528     -10.47380429       4.83003534
H        3.05631265     -11.44197294       2.67298814
H        4.57341634      -7.65197709       1.32418991
H        4.57113990      -6.05190276       4.52514638
H        3.10930150      -5.68072480       3.56658110
H        4.69572323      -5.80015868       2.78533641
C        4.20209605     -10.19418709       0.59834844
C        4.48892852     -10.68504579      -0.46524023
Br       4.95271236     -11.47872280      -2.18497316
