178
Properties=species:S:1:pos:R:3 pbc="F F F"
C       10.66056661       3.62315938      -4.14230120
C        9.36016208       4.33705282      -4.48507536
C        8.38562609       4.44684831      -3.31210832
C        7.51608716       3.20557014      -3.11086200
N        6.28960949       3.09870317      -3.53166452
N        5.69196043       4.10226566      -4.20991162
C        4.30846928       4.16592072      -4.34517294
O        3.79349539       4.89080639      -5.19420061
C        3.44391324       3.35665097      -3.42994171
C        3.82224089       3.04817909      -2.11359597
C        3.01135736       2.24953454      -1.30273615
C        1.79142512       1.79142512      -1.79142512
C        1.37082565       2.13549843      -3.07591403
C        2.19497058       2.91901616      -3.89347594
C        8.03768411       2.04219500      -2.29954852
C        9.19689676       2.11721537      -1.52142075
C        9.61369355       1.01610608      -0.76257392
C        8.86092941      -0.15491404      -0.75877270
C        7.69334681      -0.24087912      -1.50896469
C        7.28719553       0.85254411      -2.27897381
H       11.38167254       3.73648128      -4.95803499
H       10.50110233       2.55185361      -3.99433240
H       11.11688815       4.04061908      -3.23844721
H        8.88711140       3.84116799      -5.33979090
H        9.61987130       5.35325127      -4.80688950
H        7.72845639       5.30479524      -3.49547805
H        8.90572442       4.70567020      -2.38559205
H        6.22879242       4.66658152      -4.85960197
H        4.75655740       3.42005571      -1.70264418
H        3.34385230       1.99575869      -0.29958537
H        0.40887306       1.79695097      -3.45168811
H        1.86368037       3.18126782      -4.89564383
H        9.79880158       3.01611765      -1.47192666
H       10.52424774       1.08930297      -0.17283567
H        7.08930547      -1.14456040      -1.50222201
H        6.36720336       0.76510133      -2.85571964
C        9.28905144      -1.27908185       0.03278164
C        9.64760365      -2.22057239       0.69570839
Br      10.22735223      -3.74288296       1.76760488
C       -8.45130968      -1.61382251      -8.36089499
C       -7.85698202      -2.76469658      -7.56061166
C       -7.62135179      -2.43740186      -6.08582907
C       -6.29961629      -1.71861982      -5.81428320
N       -5.22242741      -2.31028230      -5.38726747
N       -5.19609536      -3.64239761      -5.16564474
C       -4.20781337      -4.22997297      -4.38177661
O       -4.01063525      -5.44271561      -4.42515153
C       -3.39436914      -3.37323884      -3.46289794
C       -3.90780295      -2.21152113      -2.86469187
C       -3.10450962      -1.40934825      -2.04977018
C       -1.79142512      -1.79142512      -1.79142512
C       -1.28061316      -2.97266648      -2.32895847
C       -2.08171747      -3.76385856      -3.16188665
C       -6.21678690      -0.21554474      -5.94709600
C       -7.34480116       0.59828937      -6.08902109
C       -7.20878213       1.98982994      -6.17342136
C       -5.94821586       2.57480704      -6.09137925
C       -4.81671574       1.78331891      -5.92803555
C       -4.95182868       0.39383678      -5.86072155
H       -8.76374634      -1.96183726      -9.35060520
H       -7.72195809      -0.81362177      -8.51170847
H       -9.33415702      -1.19812422      -7.86367320
H       -6.92984199      -3.09971012      -8.03851818
H       -8.56574943      -3.60045458      -7.61380807
H       -7.62629247      -3.37855218      -5.52388503
H       -8.45853798      -1.87379038      -5.66465831
H       -5.71259748      -4.26882057      -5.77355787
H       -4.93866467      -1.91106465      -3.02952796
H       -3.51556722      -0.49611187      -1.62751728
H       -0.26246175      -3.28412142      -2.11092896
H       -1.67710334      -4.68210777      -3.58138091
H       -8.34690504       0.18975850      -6.12969935
H       -8.09657295       2.60562069      -6.29543413
H       -3.82875928       2.22944969      -5.84765747
H       -4.05279274      -0.20689331      -5.72833829
C       -5.81676522       4.00678828      -6.16721102
C       -5.70667531       5.20607257      -6.23072013
Br      -5.52866924       7.14521383      -6.33340898
C       -9.11458623       1.69713339       7.61430756
C       -8.32592255       2.84929187       7.00707584
C       -7.96383508       2.64499130       5.53575634
C       -6.69755948       1.81625467       5.31870516
N       -5.52715559       2.32574514       5.06707645
N       -5.34573019       3.66230374       4.99610378
C       -4.22465185       4.21260484       4.38230625
O       -3.91496537       5.38632108       4.57721593
C       -3.40394200       3.36672202       3.45984191
C       -3.96075697       2.33267705       2.69058193
C       -3.15608195       1.53163680       1.87590930
C       -1.79142512       1.79142512       1.79142512
C       -1.22864772       2.85104126       2.50254912
C       -2.03420735       3.63920810       3.33404723
C       -6.77813270       0.30740517       5.29388976
C       -7.98951186      -0.38821453       5.23423554
C       -8.00120039      -1.78779245       5.17896561
C       -6.80297427      -2.49614935       5.15796314
C       -5.58800540      -1.82090488       5.19433185
C       -5.57749142      -0.42514423       5.26636627
H       -9.49756934       1.97808226       8.60053720
H       -8.48844202       0.81104996       7.74779635
H       -9.97438874       1.43143671       6.99012899
H       -7.42814108       3.03224077       7.60768843
H       -8.95051117       3.74820994       7.08129097
H       -7.81462446       3.63176400       5.08234122
H       -8.80135064       2.22051143       4.97512461
H       -5.86140477       4.27853092       5.61504023
H       -5.02800294       2.13197038       2.71928396
H       -3.60640913       0.71485294       1.31793429
H       -0.16707508       3.06925334       2.42118371
H       -1.58945839       4.46192632       3.88920732
H       -8.94493727       0.12142989       5.22047873
H       -8.95329556      -2.31182825       5.14491908
H       -4.64593469      -2.36228470       5.16331709
H       -4.61462240       0.08378632       5.28961561
C       -6.82222609      -3.93438478       5.08934664
C       -6.83834949      -5.13890695       5.03188032
Br      -6.86441966      -7.08651742       4.93896215
C        6.66298581      -1.98577477       9.77726660
C        6.57237875      -2.98118370       8.62872781
C        6.56826306      -2.33171752       7.24460214
C        5.18913301      -1.85556827       6.78781803
N        4.41879721      -2.52244012       5.97873985
N        4.79177478      -3.72429938       5.48806354
C        4.17776666      -4.27466438       4.36713190
O        4.30355086      -5.46935404       4.10559748
C        3.37464177      -3.39257267       3.46329149
C        3.67479614      -2.03405574       3.27516407
C        2.87419881      -1.22874489       2.46068435
C        1.79142512      -1.79142512       1.79142512
C        1.51142222      -3.15175996       1.91905593
C        2.30333908      -3.95193618       2.75218741
C        4.68646199      -0.49170537       7.20126028
C        5.50480377       0.47030787       7.80103698
C        4.99148984       1.73091026       8.13179397
C        3.66623891       2.04354398       7.84209313
C        2.84312800       1.10752402       7.22582840
C        3.35151799      -0.15584159       6.91135387
H        6.84504756      -2.51071694      10.72042431
H        5.73325989      -1.42228226       9.89174618
H        7.48748070      -1.28053479       9.62793896
H        5.68881871      -3.61444674       8.76480483
H        7.45000505      -3.63633807       8.69366896
H        6.93761653      -3.06885326       6.52225989
H        7.29495477      -1.51664969       7.18538221
H        5.31846071      -4.36851637       6.06799883
H        4.53255486      -1.58180424       3.76489818
H        3.10725791      -0.17195267       2.35998579
H        0.67952279      -3.59769223       1.38029711
H        2.07824452      -5.01139215       2.85095535
H        6.54846189       0.28149467       8.01987866
H        5.63996324       2.46203004       8.60845319
H        1.81105485       1.34517183       6.98108405
H        2.69061061      -0.87235274       6.42506098
C        3.14830978       3.34545306       8.17433123
C        2.71454413       4.43580191       8.45258064
Br       2.01318177       6.19880379       8.90248641
C       -0.00445707       0.01189536      -1.78238275
H       -0.66409135       0.67374010      -2.43557963
H        0.65740317      -0.63156657      -2.45157240
C       -0.90989263      -0.90692880      -0.91072765
C        0.90977584       0.90977584      -0.90977584
C       -0.00465871       1.77757030       0.00794375
H       -0.66225468       2.44313916      -0.64384735
H        0.64322798       2.43503045       0.67728295
C       -1.78241447       0.00034974      -0.00472694
H       -2.45427497      -0.65498947       0.64260836
H       -2.43311707       0.67328779      -0.65473579
C       -0.91132561       0.90220522       0.91563759
C       -0.01476271      -0.02253852       1.78660255
H       -0.67934791      -0.69751639       2.42135241
H        0.63392994       0.61504881       2.47327442
C        0.01484550      -1.77751727      -0.01636693
H        0.67870853      -2.42144646      -0.68295456
H       -0.62264859      -2.45592969       0.64226336
C        1.78714474       0.01002794       0.00389507
H        2.44202412       0.67113390       0.66197326
H        2.45385902      -0.65136977      -0.64189061
C        0.91606151      -0.90478549       0.90901405
