170
Properties=species:S:1:pos:R:3 pbc="F F F"
C       10.66056661       3.62315938      -4.14230120
C        9.36016208       4.33705282      -4.48507536
C        8.38562609       4.44684831      -3.31210832
C        7.51608716       3.20557014      -3.11086200
N        6.28960949       3.09870317      -3.53166452
N        5.69196043       4.10226566      -4.20991162
C        4.30846928       4.16592072      -4.34517294
O        3.79349539       4.89080639      -5.19420061
C        3.44391324       3.35665097      -3.42994171
C        3.82224089       3.04817909      -2.11359597
C        3.01135736       2.24953454      -1.30273615
C        1.79142512       1.79142512      -1.79142512
C        1.37082565       2.13549843      -3.07591403
C        2.19497058       2.91901616      -3.89347594
C        8.03768411       2.04219500      -2.29954852
C        9.19689676       2.11721537      -1.52142075
C        9.61369355       1.01610608      -0.76257392
C        8.86092941      -0.15491404      -0.75877270
Br       9.42257290      -1.62968405       0.27964931
C        7.69334681      -0.24087912      -1.50896469
C        7.28719553       0.85254411      -2.27897381
H       11.38167254       3.73648128      -4.95803499
H       10.50110233       2.55185361      -3.99433240
H       11.11688815       4.04061908      -3.23844721
H        8.88711140       3.84116799      -5.33979090
H        9.61987130       5.35325127      -4.80688950
H        7.72845639       5.30479524      -3.49547805
H        8.90572442       4.70567020      -2.38559205
H        6.22879242       4.66658152      -4.85960197
H        4.75655740       3.42005571      -1.70264418
H        3.34385230       1.99575869      -0.29958537
H        0.40887306       1.79695097      -3.45168811
H        1.86368037       3.18126782      -4.89564383
H        9.79880158       3.01611765      -1.47192666
H       10.52424774       1.08930297      -0.17283567
H        7.08930547      -1.14456040      -1.50222201
H        6.36720336       0.76510133      -2.85571964
C      -10.63987576      -3.43777894      -4.34837248
C       -9.35173705      -4.19820349      -4.63234973
C       -8.41467636      -4.30126840      -3.42863796
C       -7.51517820      -3.07991186      -3.23742925
N       -6.27459569      -3.02044538      -3.62493611
N       -5.68756088      -4.06010727      -4.25646955
C       -4.30324003      -4.16711710      -4.34920582
O       -3.78576526      -4.93099005      -5.16174707
C       -3.44175090      -3.35631404      -3.43244098
C       -3.84823484      -2.99868860      -2.13709250
C       -3.03770977      -2.20003450      -1.32588377
C       -1.79142512      -1.79142512      -1.79142512
C       -1.34465757      -2.18489241      -3.05268812
C       -2.16779800      -2.96825098      -3.87141370
C       -8.02532832      -1.87883441      -2.47526490
C       -9.20795382      -1.89791309      -1.72966596
C       -9.61372300      -0.76357648      -1.01507407
C       -8.82733498       0.38511588      -1.02256897
Br      -9.37483468       1.90513337      -0.04353824
C       -7.63682173       0.41571126      -1.74032191
C       -7.24114541      -0.71096981      -2.46659822
H      -11.34044931      -3.55438644      -5.18135305
H      -10.45332667      -2.36757389      -4.22638777
H      -11.13383123      -3.81535814      -3.44676507
H       -8.84016591      -3.74129979      -5.48660458
H       -9.63187430      -5.21559101      -4.93254676
H       -7.77800518      -5.18261169      -3.56811281
H       -8.96834618      -4.51785952      -2.51078097
H       -6.22198213      -4.62771184      -4.90528195
H       -4.80439643      -3.33156050      -1.74330036
H       -3.39107619      -1.90755625      -0.34056393
H       -0.36286386      -1.88507733      -3.40957094
H       -1.81591204      -3.26913477      -4.85554521
H       -9.83714306      -2.77745205      -1.67225077
H      -10.54247432      -0.79344978      -0.45046229
H       -7.00696065       1.30161453      -1.74162094
H       -6.30291635      -0.66675035      -3.01835764
C       -3.03413974      10.54835674       4.84353071
C       -3.70068279       9.23893182       5.24267565
C       -2.73404318       8.05933197       5.35120757
C       -2.44430486       7.37106402       4.01715043
N       -3.02335654       6.27525575       3.62136490
N       -3.95987139       5.66483392       4.37943239
C       -4.31773460       4.33739025       4.16443810
O       -5.35562151       3.88204396       4.64083691
C       -3.41422308       3.45488089       3.36140195
C       -2.02104280       3.62656858       3.33640456
C       -1.21244487       2.81378890       2.53739428
C       -1.79142512       1.79142512       1.79142512
C       -3.16683668       1.56729844       1.84810298
C       -3.97708269       2.39653519       2.63384480
C       -1.36092565       7.90790041       3.11060157
C       -0.43967706       8.87732106       3.51853476
C        0.56500278       9.31248794       2.64488839
C        0.66828183       8.76313142       1.36993847
Br       2.03583655       9.34519973       0.20387636
C       -0.22513379       7.78212356       0.95417502
C       -1.23757172       7.36054435       1.82059738
H       -3.73471485      11.38133603       4.96013793
H       -2.71726123      10.53261294       3.79741417
H       -2.16333850      10.75926100       5.47335495
H       -4.51189875       9.01488746       4.54128407
H       -4.16050983       9.39265075       6.22685150
H       -3.17264336       7.32227555       6.03381077
H       -1.80201954       8.35257093       5.84239621
H       -4.61130401       6.21826190       4.92541000
H       -1.54591032       4.39952751       3.93381945
H       -0.14042319       2.99040575       2.50836743
H       -3.61828503       0.75584224       1.28338486
H       -5.04953039       2.21958957       2.67147207
H       -0.46435791       9.31268428       4.50980370
H        1.26515898      10.07571621       2.97582915
H       -0.14532806       7.33503279      -0.03339379
H       -1.92395183       6.58796759       1.47610491
C        2.20083546     -10.04411386       6.18107786
C        3.12509304      -8.83488374       6.22231348
C        2.39062778      -7.49443473       6.25952022
C        1.96950138      -6.98035970       4.88265823
N        2.62847217      -6.08580557       4.20569943
N        3.77246492      -5.54902071       4.68265208
C        4.28629636      -4.36064157       4.17262502
O        5.45239301      -4.03689397       4.38921540
C        3.39812202      -3.46188731       3.37049659
C        2.01495039      -3.37442682       3.59463874
C        1.20877775      -2.56028051       2.79456979
C        1.79142512      -1.79142512       1.79142512
C        3.17137386      -1.81978685       1.59107740
C        3.97413035      -2.65227010       2.38106222
C        0.66695154      -7.44163661       4.27083947
C       -0.30216466      -8.14830758       4.98938995
C       -1.50645058      -8.52038635       4.37843778
C       -1.75730370      -8.16643395       3.05565781
Br      -3.39067897      -8.65933596       2.24458254
C       -0.81484293      -7.44458381       2.33169150
C        0.39352084      -7.08824917       2.93694344
H        2.77270529     -10.96396012       6.33952339
H        1.70212141     -10.13281790       5.21234902
H        1.43968581      -9.98961156       6.96665707
H        3.81721771      -8.87673105       5.37412153
H        3.72959450      -8.91615841       7.13425916
H        3.05719437      -6.75431842       6.71721690
H        1.53160285      -7.53004444       6.93533939
H        4.41961069      -6.12175221       5.21361302
H        1.54434309      -3.94360039       4.39131380
H        0.13572466      -2.53769058       2.96578112
H        3.63103884      -1.20378939       0.82268391
H        5.04924027      -2.67328269       2.21806906
H       -0.16237674      -8.42120286       6.02801977
H       -2.24322958      -9.07988698       4.94972899
H       -1.00561191      -7.14952746       1.30305151
H        1.11587690      -6.51923382       2.35291362
C       -0.00445707       0.01189536      -1.78238275
H       -0.66409135       0.67374010      -2.43557963
H        0.65740317      -0.63156657      -2.45157240
C       -0.90989263      -0.90692880      -0.91072765
C        0.90977584       0.90977584      -0.90977584
C       -0.00465871       1.77757030       0.00794375
H       -0.66225468       2.44313916      -0.64384735
H        0.64322798       2.43503045       0.67728295
C       -1.78241447       0.00034974      -0.00472694
H       -2.45427497      -0.65498947       0.64260836
H       -2.43311707       0.67328779      -0.65473579
C       -0.91132561       0.90220522       0.91563759
C       -0.01476271      -0.02253852       1.78660255
H       -0.67934791      -0.69751639       2.42135241
H        0.63392994       0.61504881       2.47327442
C        0.01484550      -1.77751727      -0.01636693
H        0.67870853      -2.42144646      -0.68295456
H       -0.62264859      -2.45592969       0.64226336
C        1.78714474       0.01002794       0.00389507
H        2.44202412       0.67113390       0.66197326
H        2.45385902      -0.65136977      -0.64189061
C        0.91606151      -0.90478549       0.90901405
