174
Properties=species:S:1:pos:R:3 pbc="F F F"
C        1.79102862       1.79102862      -1.79102862
C        1.37419938       3.07386972      -2.12371969
C        2.18908154       3.87572249      -2.92777090
C        3.41004331       3.40503657      -3.43782444
C        3.82686876       2.12631395      -3.05062320
C        3.01749763       1.31550849      -2.24424850
N        4.20208146       4.29427761      -4.17022665
C        5.18777463       3.77989588      -5.10544815
N        5.84350844       4.92799673      -5.68248289
C        7.00914986       5.52942050      -5.25226770
S        8.04269888       5.10002865      -4.02943029
N        7.23129153       6.64386906      -6.04850374
C        6.22139005       6.78257209      -6.95930992
C        6.13498298       7.79414504      -7.82814445
C        5.04166523       7.98956024      -8.77990422
C        3.87533250       8.65612083      -8.38462369
C        2.84373494       8.87354340      -9.30052113
C        2.97199297       8.42561983     -10.61492245
C        4.13128934       7.75692202     -11.00540145
C        5.16682860       7.53594029     -10.09670384
C        5.28908037       5.62535331      -6.73594643
O        4.25833615       5.38429394      -7.33328781
H        0.42937829       3.46660516      -1.75915096
H        1.85801001       4.88645706      -3.15666634
H        4.79245357       1.73221822      -3.35159602
H        3.36310496       0.32320358      -1.96664848
H        3.62369360       4.99582498      -4.62807825
H        4.69691738       3.20774325      -5.90120697
H        5.93055545       3.14836419      -4.61084875
H        8.01073355       7.27506872      -5.92365848
H        6.90026670       8.56457427      -7.85540995
H        3.76031150       9.01058794      -7.36273001
H        1.93988799       9.39061737      -8.98838110
H        2.16557227       8.59913720     -11.32254393
H        6.06570670       7.01350013     -10.41289663
C        4.26455566       7.29652956     -12.36329647
C        4.37616620       6.91095088     -13.50053354
Br       4.55663100       6.28750277     -15.33934971
C       -1.79102862      -1.79102862      -1.79102862
C       -3.12155899      -1.99998847      -1.45024134
C       -3.92266073      -2.80501547      -2.26489873
C       -3.40716919      -3.43802795      -3.40770718
C       -2.07660372      -3.17456016      -3.75264203
C       -1.26603307      -2.36827040      -2.94295114
N       -4.29136825      -4.16390422      -4.21131325
C       -3.78121218      -5.20504739      -5.08685908
N       -4.92070517      -5.74782696      -5.78545594
C       -5.40419514      -5.36591518      -7.02072773
S       -4.81162660      -4.25822380      -8.10230741
N       -6.55736943      -6.09622443      -7.27007046
C       -6.83549263      -6.91582507      -6.21195436
C       -7.91357746      -7.70220147      -6.14149354
C       -8.25708766      -8.55221888      -5.00182315
C       -8.97225454      -8.02370862      -3.92011386
C       -9.33058874      -8.84118444      -2.84602629
C       -8.97566450     -10.18980009      -2.84707066
C       -8.25850349     -10.71315178      -3.92195754
C       -7.89689736      -9.90338659      -4.99918879
C       -5.73321742      -6.70449691      -5.21266579
O       -5.61132458      -7.23748217      -4.12711115
H       -3.55109715      -1.53810081      -0.56593645
H       -4.96863763      -2.93640157      -1.99609422
H       -1.63942976      -3.57486288      -4.66197517
H       -0.23367147      -2.18824491      -3.23104065
H       -5.06459034      -4.52604778      -3.65695871
H       -3.30701829      -5.99962628      -4.49922303
H       -3.06326633      -4.81388263      -5.81261943
H       -7.12082194      -5.98667348      -8.10196533
H       -8.62803907      -7.73306570      -6.95914615
H       -9.25546302      -6.97361615      -3.90455028
H       -9.88488623      -8.42579263      -2.00820762
H       -9.25868305     -10.82027794      -2.00829241
H       -7.33791963     -10.32281073      -5.83137311
C       -7.89412127     -12.10628549      -3.92397493
C       -7.58895116     -13.27303497      -3.92566450
Br      -7.09551690     -15.15957019      -3.92839638
C       -1.79102862       1.79102862       1.79102862
C       -2.75180293       1.21045060       2.60953528
C       -3.55178332       2.02438079       3.41641082
C       -3.43158690       3.42354232       3.39777510
C       -2.42606596       3.97927202       2.59846793
C       -1.61863031       3.17161421       1.78701009
N       -4.21490453       4.16172572       4.28995547
C       -4.50640597       5.55715498       4.00955770
N       -5.30866517       6.03705213       5.10827077
C       -4.86702631       6.67236803       6.25144372
S       -3.33931194       7.14749568       6.68535019
N       -5.96657614       6.88693472       7.07015348
C       -7.09493207       6.38020359       6.48813640
C       -8.30059052       6.39247563       7.06420631
C       -9.51252717       5.81598904       6.48261347
C       -9.80000489       4.45691878       6.65915334
C      -10.97311828       3.91122418       6.13345702
C      -11.86389662       4.72011995       5.42851868
C      -11.57341687       6.07171417       5.24848178
C      -10.40377093       6.62492300       5.77077881
C       -6.67022853       5.82032747       5.15982412
O       -7.37214200       5.26902000       4.33475590
H       -2.88290665       0.13260779       2.63961997
H       -4.28116349       1.55025992       4.06971001
H       -2.23410526       5.04762856       2.59453398
H       -0.85148776       3.63170109       1.16976818
H       -5.07670732       3.66481670       4.50607282
H       -5.07864689       5.64814304       3.07907767
H       -3.59631803       6.15830913       3.93514123
H       -5.90968378       7.31652934       7.98324763
H       -8.43806143       6.83594363       8.04624585
H       -9.11456686       3.81317762       7.20588498
H      -11.19115902       2.85533943       6.27238801
H      -12.77535370       4.28889078       5.02300892
H      -10.18829062       7.67986904       5.62394381
C      -12.49447257       6.90735174       4.52255737
C      -13.26585673       7.60719821       3.91459569
Br     -14.51311966       8.73879076       2.93157306
C        1.79102862      -1.79102862       1.79102862
C        1.72458130      -1.67347262       3.17373488
C        2.53199460      -2.48712145       3.97345888
C        3.43721708      -3.40290565       3.41278159
C        3.45153515      -3.53293365       2.01933711
C        2.64528150      -2.72255292       1.20942019
N        4.15288739      -4.23344192       4.28025641
C        5.40404477      -4.82753712       3.84153676
N        5.88304474      -5.63167804       4.93926529
C        5.66541973      -6.97898512       5.14643321
S        4.88193178      -8.09107294       4.19915309
N        6.24137432      -7.32056518       6.36172483
C        6.79836458      -6.21788727       6.94702022
C        7.38134918      -6.22654142       8.14938185
C        7.94266559      -5.05206650       8.81639759
C        7.11917439      -4.21622844       9.58067419
C        7.65871518      -3.11318480      10.24589950
C        9.02278918      -2.83954033      10.15020574
C        9.84032396      -3.66918915       9.38409971
C        9.30935405      -4.77348403       8.71663466
C        6.57976719      -5.07739062       5.99322230
O        6.91556675      -3.91869863       6.14165252
H        1.04648017      -0.96616393       3.64249031
H        2.44767727      -2.39893330       5.05452284
H        4.07567160      -4.27267376       1.52792245
H        2.68384212      -2.83951347       0.12960144
H        4.28211486      -3.78199507       5.18348690
H        6.14026269      -4.04648225       3.61912266
H        5.26971732      -5.46003765       2.96001342
H        6.20122183      -8.24891364       6.75932528
H        7.45142266      -7.14716461       8.72166365
H        6.05326067      -4.41624903       9.66411976
H        7.01497080      -2.46680828      10.83710738
H        9.43596040      -1.97996422      10.67132877
H        9.95669766      -5.41290316       8.12250264
C       11.24924934      -3.38783929       9.28729307
C       12.42922434      -3.15220878       9.20621750
Br      14.33714413      -2.77121418       9.07512517
C       -0.00445707       0.01189536      -1.78238275
H       -0.66409135       0.67374010      -2.43557963
H        0.65740317      -0.63156657      -2.45157240
C       -0.90989263      -0.90692880      -0.91072765
C        0.90977584       0.90977584      -0.90977584
C       -0.00465871       1.77757030       0.00794375
H       -0.66225468       2.44313916      -0.64384735
H        0.64322798       2.43503045       0.67728295
C       -1.78241447       0.00034974      -0.00472694
H       -2.45427497      -0.65498947       0.64260836
H       -2.43311707       0.67328779      -0.65473579
C       -0.91132561       0.90220522       0.91563759
C       -0.01476271      -0.02253852       1.78660255
H       -0.67934791      -0.69751639       2.42135241
H        0.63392994       0.61504881       2.47327442
C        0.01484550      -1.77751727      -0.01636693
H        0.67870853      -2.42144646      -0.68295456
H       -0.62264859      -2.45592969       0.64226336
C        1.78714474       0.01002794       0.00389507
H        2.44202412       0.67113390       0.66197326
H        2.45385902      -0.65136977      -0.64189061
C        0.91606151      -0.90478549       0.90901405
