153
Properties=species:S:1:pos:R:3 pbc="F F F"
C        0.00000000       0.00000000       0.00000000
C        0.88112460       0.88112460      -0.88112460
C        0.46429536       2.16396570      -1.21381567
C        1.27917752       2.96581846      -2.01786688
C        2.50013929       2.49513255      -2.52792041
C        2.91696474       1.21640993      -2.14071917
C        2.10759361       0.40560446      -1.33434447
N        3.29217744       3.38437358      -3.26032263
C        4.27787060       2.86999185      -4.19554412
N        4.93360442       4.01809270      -4.77257887
C        6.09924583       4.61951647      -4.34236368
S        7.13279485       4.19012462      -3.11952626
N        6.32138750       5.73396503      -5.13859971
C        5.31148603       5.87266806      -6.04940590
C        5.22507895       6.88424101      -6.91824042
C        4.13176120       7.07965621      -7.87000019
C        2.96542848       7.74621680      -7.47471967
C        1.93383091       7.96363938      -8.39061711
C        2.06208894       7.51571581      -9.70501843
C        3.22138532       6.84701800     -10.09549743
C        4.25692458       6.62603627      -9.18679981
C        4.37917635       4.71544929      -5.82604240
O        3.34843212       4.47438991      -6.42338379
H       -0.48052573       2.55670114      -0.84924694
H        0.94810599       3.97655303      -2.24676232
H        3.88254954       0.82231420      -2.44169199
H        2.45320094      -0.58670044      -1.05674446
H        2.71378957       4.08592096      -3.71817422
H        3.78701335       2.29783923      -4.99130295
H        5.02065142       2.23846017      -3.70094472
H        7.10082953       6.36516469      -5.01375446
H        5.99036267       7.65467025      -6.94550592
H        2.85040748       8.10068392      -6.45282599
H        1.02998397       8.48071335      -8.07847708
H        1.25566824       7.68923318     -10.41263990
H        5.15580268       6.10359611      -9.50299260
C        3.35465163       6.38662554     -11.45339244
C        3.46626217       6.00104686     -12.59062952
Br       3.64672697       5.37759874     -14.42944569
C       -0.88112460      -0.88112460      -0.88112460
C       -2.20029820      -0.51870086      -1.12307766
C       -2.99919296      -1.32915360      -1.93451629
C       -2.51082713      -2.52364088      -2.48872423
C       -1.16618213      -2.84175196      -2.26615975
C       -0.35725814      -2.03519822      -1.45508618
N       -3.34813712      -3.23791575      -3.35082078
C       -3.12365006      -4.65770684      -3.56204968
N       -4.12640269      -5.09579140      -4.50208190
C       -4.00598772      -5.18052746      -5.87461081
S       -2.69632944      -4.89593625      -6.85018004
N       -5.23467367      -5.57373200      -6.38554659
C       -6.14308874      -5.71642294      -5.37404831
C       -7.42633740      -6.03683211      -5.56439088
C       -8.42743222      -6.14996584      -4.50401955
C       -9.11356311      -5.01293832      -4.05986352
C      -10.09362645      -5.12334441      -3.07111654
C      -10.39226188      -6.36952473      -2.52103657
C       -9.70413770      -7.49973142      -2.96003162
C       -8.72381451      -7.39820751      -3.94773864
C       -5.40687513      -5.41454041      -4.09925251
O       -5.85706687      -5.41889860      -2.97024037
H       -2.61657608       0.39086700      -0.69971326
H       -4.02188474      -1.01598719      -2.13354941
H       -0.70876150      -3.71251195      -2.72528229
H        0.68114772      -2.31177245      -1.29262022
H       -4.32564979      -3.07276750      -3.11946746
H       -3.24658480      -5.20769654      -2.62187419
H       -2.13008118      -4.85836113      -3.97161400
H       -5.42066854      -5.68650957      -7.37257057
H       -7.80680918      -6.21818058      -6.56554908
H       -8.89113311      -4.03405240      -4.47873188
H      -10.62269002      -4.23745110      -2.72903327
H      -11.15679931      -6.44811713      -1.75262489
H       -8.19422218      -8.28637571      -4.28179350
C      -10.01427011      -8.78680729      -2.39359222
C      -10.27400599      -9.86473333      -1.91919922
Br     -10.69397695     -11.60764858      -1.15214587
C       -0.88112460       0.88112460       0.88112460
C       -0.50813898       2.19417402       1.13976373
C       -1.32290231       2.99556822       1.94439232
C       -2.49872883       2.49638217       2.52808125
C       -2.87422350       1.18501037       2.21485997
C       -2.06466032       0.37434140       1.40854082
N       -3.29765378       3.38277552       3.25644434
C       -4.21854518       2.86900723       4.25585417
N       -4.89961905       4.01265442       4.81200252
C       -6.10825996       4.54392271       4.40894331
S       -7.17291421       4.01660885       3.25292268
N       -6.34570252       5.68229187       5.16595786
C       -5.30500706       5.90453399       6.02401894
C       -5.22679660       6.95664765       6.84411614
C       -4.10362592       7.24088562       7.73690606
C       -2.98616346       7.93836108       7.26184040
C       -1.92710961       8.24032657       8.12065122
C       -1.97896995       7.84644933       9.45740389
C       -3.08951925       7.14692705       9.92745444
C       -4.15204078       6.84156218       9.07615770
C       -4.33236792       4.77938990       5.80891023
O       -3.26731127       4.60949378       6.36940078
H        0.40176991       2.61025416       0.71693810
H       -1.02779938       4.02873390       2.11488806
H       -3.80751289       0.76384670       2.57519615
H       -2.37717485      -0.64322489       1.18929499
H       -2.73212369       4.12813141       3.65762966
H       -3.66908748       2.35444009       5.05262796
H       -4.95284944       2.18486914       3.82233773
H       -7.15716391       6.27341050       5.04917427
H       -6.02384242       7.69412444       6.87257199
H       -2.93084566       8.25145142       6.22162031
H       -1.06140657       8.78109724       7.74667059
H       -1.15160168       8.08567592      10.12026372
H       -5.01237179       6.29582877       9.45419083
C       -3.14396344       6.74233218      11.30837400
C       -3.18956044       6.40348398      12.46489413
Br      -3.26328694       5.85559510      14.33488936
C        0.88112460      -0.88112460       0.88112460
C        2.08389333      -0.38743614       1.37074726
C        2.88290081      -1.19958720       2.18037484
C        2.51576758      -2.51994627       2.48747839
C        1.27861018      -2.97666902       2.01881464
C        0.47034077      -2.16973217       1.20746959
N        3.33070632      -3.24066375       3.36550357
C        3.30263042      -4.69314818       3.34762798
N        4.22631043      -5.13346675       4.36449882
C        3.93802372      -5.44510012       5.67800214
S        2.48153869      -5.49277132       6.46813574
N        5.13328667      -5.74481325       6.31585234
C        6.17984508      -5.60633660       5.44737832
C        7.46011307      -5.77784233       5.78960499
C        8.59934770      -5.59047028       4.89159963
C        9.15424408      -4.31695422       4.71516665
C       10.26289166      -4.14081845       3.88437729
C       10.82178624      -5.23549288       3.22554406
C       10.26457246      -6.50179963       3.39752866
C        9.15718533      -6.68650330       4.22607203
C        5.58292698      -5.21184376       4.12589730
O        6.17524703      -4.98103698       3.08992182
H        2.40709716       0.62412638       1.14245157
H        3.80883030      -0.78711366       2.57547738
H        0.90434151      -3.96128525       2.28092898
H       -0.48152797      -2.55415303       0.85061989
H        4.29289322      -2.91245642       3.31253512
H        3.63387731      -5.06943869       2.37283953
H        2.30639488      -5.08586004       3.56780139
H        5.20082178      -5.98320955       7.29571734
H        7.72674054      -6.05954092       6.80425738
H        8.72888952      -3.45340434       5.22162353
H       10.68929201      -3.14993644       3.74994595
H       11.68507619      -5.09116545       2.58129968
H        8.73169339      -7.67843927       4.35225873
C       10.84324264      -7.63243292       2.71899406
C       11.32787891      -8.57933829       2.15072134
Br      12.11149479     -10.11040420       1.23187242
