166
Properties=species:S:1:pos:R:3 pbc="F F F"
C        1.79102862       1.79102862      -1.79102862
C        1.37419938       3.07386972      -2.12371969
C        2.18908154       3.87572249      -2.92777090
C        3.41004331       3.40503657      -3.43782444
C        3.82686876       2.12631395      -3.05062320
C        3.01749763       1.31550849      -2.24424850
N        4.20208146       4.29427761      -4.17022665
C        5.18777463       3.77989588      -5.10544815
N        5.84350844       4.92799673      -5.68248289
C        7.00914986       5.52942050      -5.25226770
S        8.04269888       5.10002865      -4.02943029
N        7.23129153       6.64386906      -6.04850374
C        6.22139005       6.78257209      -6.95930992
C        6.13498298       7.79414504      -7.82814445
C        5.04166523       7.98956024      -8.77990422
C        3.87533250       8.65612083      -8.38462369
C        2.84373494       8.87354340      -9.30052113
C        2.97199297       8.42561983     -10.61492245
C        4.13128934       7.75692202     -11.00540145
Br       4.30631281       7.15227199     -12.78877399
C        5.16682860       7.53594029     -10.09670384
C        5.28908037       5.62535331      -6.73594643
O        4.25833615       5.38429394      -7.33328781
H        0.42937829       3.46660516      -1.75915096
H        1.85801001       4.88645706      -3.15666634
H        4.79245357       1.73221822      -3.35159602
H        3.36310496       0.32320358      -1.96664848
H        3.62369360       4.99582498      -4.62807825
H        4.69691738       3.20774325      -5.90120697
H        5.93055545       3.14836419      -4.61084875
H        8.01073355       7.27506872      -5.92365848
H        6.90026670       8.56457427      -7.85540995
H        3.76031150       9.01058794      -7.36273001
H        1.93988799       9.39061737      -8.98838110
H        2.16557227       8.59913720     -11.32254393
H        6.06570670       7.01350013     -10.41289663
C       -1.79102862      -1.79102862      -1.79102862
C       -2.86049442      -1.23194733      -2.47934705
C       -3.65996823      -2.04524350      -3.28736320
C       -3.42934053      -3.42624616      -3.39731762
C       -2.31900942      -3.95533408      -2.72946241
C       -1.51124896      -3.14799298      -1.91801267
N       -4.22545774      -4.15620095      -4.28492702
C       -4.38178509      -5.58903934      -4.10229422
N       -5.23453113      -6.04786738      -5.17158956
C       -4.84333206      -6.55175159      -6.39575440
S       -3.32555566      -6.85970144      -6.98690072
N       -5.98834340      -6.79426872      -7.14105220
C       -7.09931733      -6.43255630      -6.43139843
C       -8.34493427      -6.50218059      -6.91015760
C       -9.54443068      -6.07825905      -6.18843995
C       -9.95150974      -4.73893638      -6.22563089
C      -11.11478619      -4.33791630      -5.56509699
C      -11.87621291      -5.27241838      -4.86390396
C      -11.46644034      -6.60433384      -4.82283864
Br     -12.50084947      -7.87207767      -3.87443165
C      -10.30572994      -7.01337914      -5.48036366
C       -6.60832532      -5.94440360      -5.09765120
O       -7.27853339      -5.52117893      -4.17620558
H       -3.07774850      -0.17013713      -2.40724878
H       -4.47719380      -1.58516428      -3.83877534
H       -2.04427533      -5.00049435      -2.83149813
H       -0.66068222      -3.58809366      -1.40418114
H       -5.13880602      -3.71901554      -4.38977527
H       -4.86388550      -5.80102662      -3.14095548
H       -3.42436245      -6.11455669      -4.15084924
H       -5.97585458      -7.14457949      -8.08902668
H       -8.53028278      -6.87740541      -7.91256273
H       -9.36764092      -3.99834993      -6.76763861
H      -11.42593381      -3.29678333      -5.59616933
H      -12.78084475      -4.95341369      -4.35299495
H       -9.99652662      -8.05441699      -5.44115985
C       -1.79102862       1.79102862       1.79102862
C       -1.69477123       3.17416653       1.70285103
C       -2.50830578       3.97380190       2.51046725
C       -3.40255399       3.41328351       3.43706681
C       -3.51187767       2.01846334       3.47346490
C       -2.70144401       1.20860694       2.66720366
N       -4.23529581       4.27906312       4.15222678
C       -4.80470686       3.85021526       5.41819653
N       -5.61786760       4.94310509       5.89301538
C       -6.97108192       5.12752703       5.69222911
S       -8.08036046       4.15283939       4.93895797
N       -7.32210355       6.34607571       6.25548507
C       -6.22019446       6.95539221       6.78768540
C       -6.23806929       8.16593671       7.35326646
C       -5.06551628       8.85805913       7.88755427
C       -4.25300480       9.62217674       7.04089548
C       -3.15215683      10.31115511       7.55448753
C       -2.85741707      10.23948121       8.91563697
C       -3.66379998       9.47353667       9.75627617
Br      -3.26571574       9.37895528      11.60268777
C       -4.76574194       8.78242682       9.25130398
C       -5.06909398       6.01509707       6.56618907
O       -3.90796747       6.18520299       6.88274744
H       -1.00431581       3.64310086       1.00771774
H       -2.43723764       5.05467401       2.40922176
H       -4.23520599       1.52561237       4.11544944
H       -2.80195913       0.12789109       2.72310680
H       -3.79534240       5.19053544       4.26171899
H       -4.00989264       3.64997073       6.14600424
H       -5.42606813       2.95774944       5.30595081
H       -8.25667649       6.72956200       6.22322226
H       -7.16588888       8.72579822       7.42856382
H       -4.46963994       9.68705081       5.97693870
H       -2.52392205      10.90213842       6.89282601
H       -1.99969747      10.77900693       9.30854900
H       -5.38692576       8.18867360       9.91650411
C        1.79102862      -1.79102862       1.79102862
C        2.98857253      -1.29361257       2.28960370
C        3.78759367      -2.10581948       3.09916179
C        3.42584268      -3.42970044       3.39736120
C        2.19360503      -3.89044382       2.91975706
C        1.38535887      -3.08349066       2.10840508
N        4.23995051      -4.15075447       4.27588074
C        4.21965792      -5.60325164       4.25020910
N        5.14028867      -6.04407696       5.26962244
C        4.84674342      -6.36417234       6.57992229
S        3.38639094      -6.42369360       7.36207327
N        6.04020098      -6.66095989       7.22250346
C        7.09057010      -6.51237945       6.36032251
C        8.36990827      -6.67895077       6.70841342
C        9.51284770      -6.48083200       5.81744997
C       10.06191652      -5.20349577       5.65066472
C       11.17397532      -5.01712982       4.82669433
C       11.74211777      -6.10534353       4.16507394
C       11.19071687      -7.37545931       4.32743663
Br      11.96323637      -8.85160071       3.43252171
C       10.07997567      -7.57037440       5.14912266
C        6.49853862      -6.11404566       5.03779584
O        7.09507527      -5.87464279       4.00619985
H        3.30761493      -0.27916800       2.06835148
H        4.70923363      -1.69057342       3.50132636
H        1.82317850      -4.87839074       3.17469857
H        0.43743047      -3.47102388       1.74450267
H        5.20065219      -3.81720960       4.22973504
H        4.55802005      -5.97262767       3.27521988
H        3.22436958      -6.00236358       4.46303523
H        6.10383672      -6.90418065       8.20144338
H        8.63267686      -6.96460845       7.72296561
H        9.62933610      -4.34489045       6.15940291
H       11.59582660      -4.02331867       4.69974120
H       12.60801191      -5.95306439       3.52617710
H        9.65908177      -8.56519106       5.26783064
C       -0.00445707       0.01189536      -1.78238275
H       -0.66409135       0.67374010      -2.43557963
H        0.65740317      -0.63156657      -2.45157240
C       -0.90989263      -0.90692880      -0.91072765
C        0.90977584       0.90977584      -0.90977584
C       -0.00465871       1.77757030       0.00794375
H       -0.66225468       2.44313916      -0.64384735
H        0.64322798       2.43503045       0.67728295
C       -1.78241447       0.00034974      -0.00472694
H       -2.45427497      -0.65498947       0.64260836
H       -2.43311707       0.67328779      -0.65473579
C       -0.91132561       0.90220522       0.91563759
C       -0.01476271      -0.02253852       1.78660255
H       -0.67934791      -0.69751639       2.42135241
H        0.63392994       0.61504881       2.47327442
C        0.01484550      -1.77751727      -0.01636693
H        0.67870853      -2.42144646      -0.68295456
H       -0.62264859      -2.45592969       0.64226336
C        1.78714474       0.01002794       0.00389507
H        2.44202412       0.67113390       0.66197326
H        2.45385902      -0.65136977      -0.64189061
C        0.91606151      -0.90478549       0.90901405
