166
Properties=species:S:1:pos:R:3 pbc="F F F"
C        1.79207490       1.79207490      -1.79207490
C        1.26943122       2.96492355      -2.33644532
C        2.08127929       3.78567006      -3.12019988
C        3.40699080       3.42822858      -3.35654272
O        4.14982653       4.29743775      -4.10956213
C        3.92508118       2.23176771      -2.84025792
C        3.11350936       1.41696782      -2.03835845
C        5.33160214       1.85735691      -3.13334832
O        6.15153559       2.75650692      -3.30424730
N        5.57195431       0.50180697      -3.26689932
N        6.83477160       0.05052803      -3.53005401
C        6.93005527      -1.17393118      -3.94278686
C        5.79951972      -2.16411542      -4.23549590
O        4.62314463      -1.94581896      -4.03110443
N        6.41182338      -3.28462140      -4.74316183
C        7.79868016      -3.12959057      -4.75995017
C        8.74728823      -4.04605195      -5.17877580
C        8.37452381      -5.38300974      -5.73677612
C       10.09404378      -3.65351868      -5.06491258
C       10.44740728      -2.38538636      -4.55410325
C        9.47875914      -1.46817643      -4.15151296
C        8.16568726      -1.87252230      -4.26919658
H        0.23877638       3.25506931      -2.14812335
H        1.68612347       4.70788965      -3.53916097
H        5.09522923       4.03543073      -4.02818483
H        3.50790002       0.51183113      -1.58531736
H        4.79273813      -0.15593538      -3.34072426
H        5.90508452      -4.10860389      -5.03241105
H        9.26023314      -5.98241366      -5.97033997
H        7.80166256      -5.25790464      -6.66151208
H        7.77389605      -5.94457489      -5.01383463
H       10.88211726      -4.33860977      -5.37553143
H        9.72992136      -0.48827410      -3.76041835
C       11.84000160      -2.03562557      -4.44479429
C       13.00629935      -1.74270091      -4.35324803
Br      14.89210415      -1.26906651      -4.20522548
C       -1.79207490      -1.79207490      -1.79207490
C       -1.91492951      -3.15124677      -1.50462382
C       -2.74119612      -3.95320161      -2.29275150
C       -3.43596798      -3.39312012      -3.36267400
O       -4.24961886      -4.23552828      -4.07167926
C       -3.28669180      -2.03442992      -3.67598507
C       -2.47005933      -1.22614249      -2.87263381
C       -4.01277931      -1.46862082      -4.84090723
O       -5.09167758      -1.96640667      -5.15420556
N       -3.35170711      -0.46431927      -5.52463422
N       -3.93606041       0.12893953      -6.60823276
C       -3.15306148       0.82484779      -7.37069726
C       -1.63892618       1.01635016      -7.24832417
O       -0.96265555       0.58946831      -6.33524286
N       -1.26876721       1.74882999      -8.35042659
C       -2.38139596       2.07819500      -9.12583880
C       -2.40912488       2.82177937     -10.29266657
C       -1.16590427       3.36254101     -10.92492692
C       -3.67418023       3.03877136     -10.87002881
C       -4.84719899       2.51494387     -10.28386905
C       -4.79975158       1.75471824      -9.11706232
C       -3.55146196       1.55526108      -8.56616066
H       -1.38348147      -3.59306501      -0.66542257
H       -2.85247490      -5.01142644      -2.06927276
H       -4.82273184      -3.68421603      -4.65189693
H       -2.37939449      -0.16082413      -3.06482989
H       -2.36449152      -0.27559011      -5.33744538
H       -0.31529148       2.02348908      -8.53708928
H       -1.39373227       3.95940950     -11.81383668
H       -0.51227980       2.53975109     -11.23274129
H       -0.62824016       4.00600457     -10.22092021
H       -3.75419188       3.62192683     -11.78677387
H       -5.68876522       1.34066391      -8.65396429
C       -6.11961676       2.77594964     -10.90550320
C       -7.18526664       2.99454197     -11.42612179
Br      -8.90833237       3.34798727     -12.26791803
C       -1.79207490       1.79207490       1.79207490
C       -3.01204713       1.30166591       2.25708706
C       -3.80667369       2.09564674       3.08482880
C       -3.37888080       3.37323467       3.43964663
O       -4.19733465       4.08135142       4.27814034
C       -2.16969485       3.88262051       2.94479144
C       -1.36396424       3.07725248       2.12761890
C       -1.75153971       5.25921833       3.31154933
O       -2.10596867       5.70653764       4.39978350
N       -1.05401369       5.94968898       2.33695793
N       -0.61696297       7.22223903       2.57615163
C       -0.25420102       7.90696308       1.53774686
C       -0.31257395       7.49368864       0.06463760
O       -0.64341566       6.39429966      -0.32928522
N        0.08459529       8.60078775      -0.64582865
C        0.42930880       9.64579653       0.21255203
C        0.89367555      10.90365802      -0.12997040
C        1.05419948      11.33562822      -1.55313856
C        1.20074799      11.77185124       0.93433444
C        1.03397005      11.37183792       2.27825630
C        0.55012729      10.10674678       2.60547617
C        0.25709557       9.27071310       1.54874400
H       -3.34760559       0.30207544       1.99228801
H       -4.75381691       1.71753981       3.46181738
H       -3.69288179       4.86091008       4.60505292
H       -0.39953915       3.43108717       1.77442219
H       -1.00738110       5.58849986       1.38164604
H        0.13824721       8.62099028      -1.65385139
H        1.47382793      12.34431220      -1.62232482
H        0.08147074      11.34258035      -2.05583961
H        1.72963479      10.65710806      -2.08431748
H        1.57490963      12.77261469       0.72133386
H        0.41147029       9.78245869       3.63107721
C        1.37494575      12.29193685       3.33217923
C        1.66051290      13.06251970       4.21483967
Br       2.12225084      14.30848701       5.64202696
C        1.79207490      -1.79207490       1.79207490
C        3.08064087      -1.37074676       2.11941246
C        3.87807692      -2.16218551       2.94688680
C        3.38437918      -3.36859875       3.43878416
O        4.21298706      -4.07588627       4.26795307
C        2.10258366      -3.81197492       3.08254822
C        1.29587159      -3.00748434       2.26547969
C        1.61184366      -5.11664461       3.59381909
O        2.02028584      -5.50694201       4.68506196
N        0.78450286      -5.81946685       2.73669089
N        0.27235822      -7.02899358       3.11400184
C       -0.22725402      -7.75891231       2.16725267
C       -0.26025013      -7.46643660       0.66471372
O        0.12016085      -6.43199984       0.15626941
N       -0.79919393      -8.58792325       0.08163448
C       -1.15049780      -9.53146198       1.04807558
C       -1.73713334     -10.76884692       0.84829850
C       -2.04844385     -11.29408131      -0.51734728
C       -2.02028165     -11.52401386       2.00170547
C       -1.71181907     -11.03714475       3.29079850
C       -1.10655257      -9.79537656       3.47327168
C       -0.83919609      -9.07040931       2.33114831
H        3.46882584      -0.42592952       1.74721369
H        4.87960263      -1.83646565       3.21710582
H        3.67909199      -4.78323917       4.69651364
H        0.28102460      -3.30581886       2.01820505
H        0.68632704      -5.53017552       1.76102444
H       -0.93806221      -8.68103169      -0.91407779
H       -2.54869025     -12.26660736      -0.46975766
H       -1.12441878     -11.42070925      -1.09102047
H       -2.71161957     -10.60448908      -1.04971371
H       -2.48673102     -12.50351767       1.90225227
H       -0.85838112      -9.40587657       4.45457016
C       -2.03350828     -11.84185539       4.44082321
C       -2.30292299     -12.51580055       5.40396891
Br      -2.73854378     -13.60551287       6.96129404
C       -0.00445707       0.01189536      -1.78238275
H       -0.66409135       0.67374010      -2.43557963
H        0.65740317      -0.63156657      -2.45157240
C       -0.90989263      -0.90692880      -0.91072765
C        0.90977584       0.90977584      -0.90977584
C       -0.00465871       1.77757030       0.00794375
H       -0.66225468       2.44313916      -0.64384735
H        0.64322798       2.43503045       0.67728295
C       -1.78241447       0.00034974      -0.00472694
H       -2.45427497      -0.65498947       0.64260836
H       -2.43311707       0.67328779      -0.65473579
C       -0.91132561       0.90220522       0.91563759
C       -0.01476271      -0.02253852       1.78660255
H       -0.67934791      -0.69751639       2.42135241
H        0.63392994       0.61504881       2.47327442
C        0.01484550      -1.77751727      -0.01636693
H        0.67870853      -2.42144646      -0.68295456
H       -0.62264859      -2.45592969       0.64226336
C        1.78714474       0.01002794       0.00389507
H        2.44202412       0.67113390       0.66197326
H        2.45385902      -0.65136977      -0.64189061
C        0.91606151      -0.90478549       0.90901405
