137
Properties=species:S:1:pos:R:3 pbc="F F F"
C        0.00000000       0.00000000       0.00000000
C        0.88217088       0.88217088      -0.88217088
C        0.35952720       2.05501953      -1.42654130
C        1.17137526       2.87576604      -2.21029586
C        2.49708678       2.51832455      -2.44663869
O        3.23992250       3.38753373      -3.19965810
C        3.01517715       1.32186368      -1.93035389
C        2.20360533       0.50706379      -1.12845443
C        4.42169811       0.94745288      -2.22344429
O        5.24163156       1.84660289      -2.39434328
N        4.66205028      -0.40809705      -2.35699530
N        5.92486757      -0.85937599      -2.62014999
C        6.02015125      -2.08383520      -3.03288283
C        4.88961569      -3.07401944      -3.32559187
O        3.71324061      -2.85572299      -3.12120041
N        5.50191935      -4.19452542      -3.83325780
C        6.88877614      -4.03949460      -3.85004615
C        7.83738421      -4.95595598      -4.26887177
C        7.46461978      -6.29291376      -4.82687209
C        9.18413976      -4.56342271      -4.15500856
C        9.53750326      -3.29529038      -3.64419923
Br      11.36729687      -2.83572362      -3.50057316
C        8.56885511      -2.37808045      -3.24160893
C        7.25578323      -2.78242632      -3.35929255
H       -0.67112764       2.34516529      -1.23821933
H        0.77621944       3.79798563      -2.62925695
H        4.18532521       3.12552670      -3.11828081
H        2.59799600      -0.39807289      -0.67541333
H        3.88283410      -1.06583941      -2.43082024
H        4.99518050      -5.01850791      -4.12250702
H        8.35032911      -6.89231768      -5.06043595
H        6.89175854      -6.16780867      -5.75160805
H        6.86399203      -6.85447891      -4.10393061
H        9.97221323      -5.24851380      -4.46562741
H        8.82001734      -1.39817813      -2.85051433
C       -0.88217088      -0.88217088      -0.88217088
C       -0.29842375      -1.66387674      -1.87878754
C       -1.09922622      -2.49053413      -2.66767681
C       -2.47600906      -2.52850789      -2.45753307
O       -3.19221702      -3.38495374      -3.24994358
C       -3.07009682      -1.71703724      -1.48026066
C       -2.26236676      -0.90021576      -0.67654103
C       -4.54314076      -1.75174190      -1.29771264
O       -5.13775809      -2.79780423      -1.54701541
N       -5.12670068      -0.55221980      -0.93202804
N       -6.47645710      -0.47768921      -0.73149526
C       -6.98471839       0.71364821      -0.69812870
C       -6.27403951       2.05172878      -0.91887739
O       -5.07741329       2.17746161      -1.07876635
N       -7.26259869       3.00549865      -0.88355170
C       -8.50450337       2.42569346      -0.62051778
C       -9.72530070       3.06409388      -0.48909318
C       -9.87670020       4.54202898      -0.66390689
C      -10.83266757       2.24813368      -0.19119172
C      -10.69474573       0.85071319      -0.04237956
Br     -12.22024796      -0.18757651       0.37567805
C       -9.46054152       0.22184182      -0.19368389
C       -8.38810599       1.03882777      -0.48337124
H        0.77629112      -1.64669088      -2.04185722
H       -0.65183858      -3.11237185      -3.43925159
H       -4.09616803      -3.46458138      -2.86838331
H       -2.69416635      -0.30187251       0.12070242
H       -4.59030284       0.31710001      -0.97461211
H       -7.08421190       3.99162068      -1.00658839
H      -10.90584420       4.86558802      -0.47819120
H       -9.61556616       4.82809069      -1.68808246
H       -9.22790630       5.07788555       0.03657703
H      -11.81695701       2.69964859      -0.07201843
H       -9.33502526      -0.85014227      -0.08718601
C       -0.88217088       0.88217088       0.88217088
C       -1.78888229       0.29074203       1.76146370
C       -2.57623686       1.09395970       2.58724059
C       -2.45439394       2.48056343       2.52709265
O       -3.23791585       3.20125264       3.38794585
C       -1.56944533       3.07916649       1.61878290
C       -0.76626607       2.27059810       0.80225938
C       -1.48156501       4.55974340       1.55128689
O       -1.70462100       5.20493528       2.57302146
N       -1.22881742       5.08512309       0.29700802
N       -1.12167027       6.43688383       0.12708747
C       -1.19449769       6.86746095      -1.09275975
C       -1.44991377       6.05886013      -2.36758578
O       -1.53882297       4.84904394      -2.40914888
N       -1.53757087       6.98342259      -3.38034173
C       -1.32109138       8.27425975      -2.89602344
C       -1.30887730       9.45657731      -3.61515461
C       -1.58332016       9.50029146      -5.08503351
C       -1.03444270      10.63095002      -2.88966711
C       -0.79170397      10.59381758      -1.49910945
Br      -0.41125458      12.20650272      -0.58561089
C       -0.82342705       9.39630872      -0.78735218
C       -1.09202118       8.25716322      -1.51653495
H       -1.88226596      -0.79076744       1.82075845
H       -3.27748519       0.64169220       3.28428463
H       -2.91195956       4.13012718       3.38704598
H       -0.03699743       2.71044318       0.12789582
H       -1.28945769       4.49157829      -0.53322105
H       -1.70883687       6.73391317      -4.34357043
H       -1.48526466      10.51557804      -5.48239533
H       -2.60387074       9.15886481      -5.28717762
H       -0.87613109       8.86202611      -5.62471347
H       -1.00756938      11.58914481      -3.40738735
H       -0.64356027       9.34771993       0.28107334
C        0.88217088      -0.88217088       0.88217088
C        1.61788815      -1.91736486       0.30583501
C        2.44486222      -2.70701932       1.10555562
C        2.52898873      -2.45908205       2.47397925
O        3.38315535      -3.25552606       3.18843293
C        1.76328440      -1.44205325       3.06205708
C        0.94635663      -0.63806469       2.25470222
C        1.84617333      -1.21886110       4.52756086
O        2.90166211      -1.48163842       5.09927721
N        0.67507332      -0.80187532       5.13399989
N        0.64572653      -0.56102154       6.47889349
C       -0.52882747      -0.47845433       7.01957203
C       -1.89282412      -0.68010189       6.35391035
O       -2.05794760      -0.87014901       5.16651662
N       -2.81592124      -0.58888490       7.36768808
C       -2.19285192      -0.30775801       8.58442159
C       -2.79132938      -0.12314308       9.81848630
C       -4.26857696      -0.25033985      10.01681521
C       -1.93524161       0.18210506      10.89307228
C       -0.53878611       0.28605645      10.71125466
Br       0.55507198       0.71673410      12.19380853
C        0.04921431       0.08147613       9.46464541
C       -0.80664477      -0.21454330       8.42475094
H        1.56469266      -2.11030082      -0.76273650
H        3.03121483      -3.50881768       0.66342951
H        3.49995372      -2.85095173       4.07822727
H        0.38375217       0.18825225       2.67983652
H       -0.21040348      -0.83425332       4.62396509
H       -3.80992828      -0.68807521       7.22103269
H       -4.55653211      -0.02611599      11.04886349
H       -4.59109895      -1.27272061       9.79393626
H       -4.80306013       0.44680195       9.36330580
H       -2.35424544       0.34230659      11.88587887
H        1.11966487       0.15300740       9.30569606
