162
Properties=species:S:1:pos:R:3 pbc="F F F"
C        1.79319321       1.79319321      -1.79319321
C        3.10383171       1.37445697      -2.08846739
C        3.94007133       2.14612925      -2.90960574
C        5.30978201       1.66482162      -3.27702136
C        3.40893300       3.32728231      -3.40826069
N        4.03356059       4.21384259      -4.28010515
C        3.19986775       5.25391826      -4.61711484
O        3.43004542       6.19009705      -5.34937613
C        1.89511649       4.99909282      -3.83999696
N        0.89419514       5.81299626      -3.95124681
N       -0.17827104       5.67200278      -3.13522692
C       -1.38104680       6.32662830      -3.33800747
O       -2.21503853       6.36468816      -2.43588789
C       -1.66163981       6.95298534      -4.65592601
C       -0.75599966       7.88876479      -5.18091634
C       -1.00422696       8.50950373      -6.40684694
C       -2.17312539       8.22376493      -7.10655272
C       -3.09059978       7.31085741      -6.58542394
C       -2.83863233       6.67060869      -5.36423336
C        2.10767997       3.74959201      -3.09802647
C        1.27410418       2.98456332      -2.30337337
H        3.46573925       0.42906320      -1.68603906
H        5.63173197       0.84494065      -2.62621410
H        6.04428769       2.46962144      -3.17283715
H        5.31508818       1.30333273      -4.31023184
H        4.96605369       4.12546186      -4.65637033
H       -0.03849939       5.34398102      -2.18680014
H        0.15579577       8.13563837      -4.64158363
H       -0.28233846       9.21474489      -6.81147051
H       -2.36953906       8.70971270      -8.05913919
H       -3.99973844       7.09867768      -7.14368654
H        0.24806900       3.26330495      -2.10102423
C       -3.81304249       5.70391039      -4.92878042
C       -4.62911099       4.89430057      -4.56408859
Br      -5.94862474       3.58522997      -3.97441274
C       -1.79319321      -1.79319321      -1.79319321
C       -3.01166754      -1.27998488      -2.27510365
C       -3.84215909      -2.05070003      -3.10294719
C       -5.10467659      -1.47779564      -3.66915276
C       -3.39980044      -3.32814805      -3.41652750
N       -4.02893687      -4.23954492      -4.25902654
C       -3.28796614      -5.38993151      -4.39300319
O       -3.54691111      -6.37454529      -5.04806220
C       -2.04815191      -5.18245430      -3.50360005
N       -1.13923129      -6.10075292      -3.41845400
N       -0.14578549      -5.97791562      -2.50525754
C        0.98986817      -6.76950460      -2.50395255
O        1.71870417      -6.78983215      -1.51440953
C        1.32995549      -7.56552720      -3.71169982
C        0.38241602      -8.45806673      -4.23803075
C        0.68183920      -9.23489681      -5.35906610
C        1.94023287      -9.14953248      -5.94789264
C        2.89728346      -8.28123333      -5.42173170
C        2.59684111      -7.48527423      -4.30777660
C       -2.19251925      -3.84225357      -2.92052563
C       -1.36273040      -3.08082035      -2.11849011
H       -3.30357919      -0.26353854      -2.01372380
H       -5.39635824      -0.56146874      -3.14505974
H       -5.93193760      -2.18727965      -3.56752904
H       -4.96467786      -1.23636255      -4.72761234
H       -4.90265893      -4.10025887      -4.74496807
H       -0.34291775      -5.53266754      -1.61669648
H       -0.60123794      -8.54909140      -3.78268842
H       -0.07026515      -9.90457988      -5.76903191
H        2.17597934      -9.75708368      -6.81820850
H        3.87631669      -8.22636678      -5.89257569
H       -0.40040333      -3.43733137      -1.77466349
C        3.62489842      -6.57921779      -3.86532895
C        4.48589641      -5.82039553      -3.49477905
Br       5.87805734      -4.59344411      -2.89563119
C       -1.79319321       1.79319321       1.79319321
C       -2.00462470       3.13533666       1.42679471
C       -2.82257856       3.97389010       2.19933765
C       -3.10005338       5.38153576       1.77003585
C       -3.40418989       3.41277796       3.32750815
N       -4.28851137       4.03729362       4.20170334
C       -4.71619661       3.17298460       5.18171963
O       -5.48247794       3.39466833       6.09237233
C       -3.99019162       1.84467693       4.89933771
N       -4.18931615       0.81301999       5.65610206
N       -3.41914522      -0.29090162       5.50071506
C       -3.71122727      -1.51180257       6.08416428
O       -2.85276376      -2.39061558       6.12338934
C       -5.07058454      -1.75574958       6.63243656
C       -5.59798206      -0.87052629       7.58622569
C       -6.86375225      -1.08650555       8.13487702
C       -7.60306879      -2.20415681       7.75828028
C       -7.08122654      -3.10208007       6.82653510
C       -5.81903440      -2.88120640       6.25838171
C       -3.17756630       2.07908181       3.69865034
C       -2.38623962       1.24419126       2.93161000
H       -1.53880879       3.52122047       0.52081225
H       -2.39460647       5.70920680       0.99907346
H       -3.00136686       6.07087206       2.61450737
H       -4.11252860       5.45553263       1.36059152
H       -4.61518056       4.99053695       4.14216837
H       -2.44997111      -0.18318409       5.22549474
H       -5.02893196       0.00047741       7.90360839
H       -7.26829895      -0.37965013       8.85522812
H       -8.58695995      -2.37567602       8.18802891
H       -7.67076576      -3.97113715       6.54299718
H       -2.24701119       0.19725986       3.16812713
C       -5.38268618      -3.82910194       5.26606409
C       -5.01724456      -4.62296446       4.43499808
Br      -4.42635635      -5.90657302       3.09123463
C        1.79319321      -1.79319321       1.79319321
C        2.61416591      -2.76345815       1.18913201
C        3.45278460      -3.58131701       1.96170470
C        4.37492303      -4.56569859       1.31100336
C        3.42863169      -3.38110659       3.33473772
N        4.21205876      -4.03405036       4.28139921
C        3.97283487      -3.55160104       5.54646493
O        4.48224148      -3.89895297       6.58832415
C        2.88491819      -2.47558269       5.37370538
N        2.44010427      -1.82025384       6.39808010
N        1.36827386      -1.00335755       6.25732724
C        0.97678445      -0.08780233       7.21900220
O       -0.13581407       0.43026550       7.15161709
C        1.91866089       0.27941946       8.30803010
C        2.47198631      -0.73122698       9.11046817
C        3.34302755      -0.41427688      10.15481929
C        3.64718401       0.91658276      10.42659100
C        3.08761074       1.93106833       9.64913916
C        2.22699800       1.61859791       8.58780962
C        2.59643616      -2.42428958       3.93457271
C        1.78107055      -1.60453425       3.17643607
H        2.60883059      -2.86726395       0.10474698
H        4.09967292      -4.73811511       0.26509869
H        4.33220285      -5.53289874       1.82164470
H        5.40260253      -4.18959573       1.33645449
H        4.89458874      -4.75488279       4.09841435
H        0.63862796      -1.25339882       5.60025498
H        2.23462633      -1.77597322       8.92241822
H        3.78165620      -1.20936631      10.75285443
H        4.32190006       1.16482450      11.24223727
H        3.33440071       2.96622137       9.87444644
H        1.17666956      -0.82097406       3.61475457
C        1.73889412       2.72441058       7.80516479
C        1.33010712       3.65052870       7.14969975
Br       0.66913311       5.14798337       6.08986822
C       -0.00445707       0.01189536      -1.78238275
H       -0.66409135       0.67374010      -2.43557963
H        0.65740317      -0.63156657      -2.45157240
C       -0.90989263      -0.90692880      -0.91072765
C        0.90977584       0.90977584      -0.90977584
C       -0.00465871       1.77757030       0.00794375
H       -0.66225468       2.44313916      -0.64384735
H        0.64322798       2.43503045       0.67728295
C       -1.78241447       0.00034974      -0.00472694
H       -2.45427497      -0.65498947       0.64260836
H       -2.43311707       0.67328779      -0.65473579
C       -0.91132561       0.90220522       0.91563759
C       -0.01476271      -0.02253852       1.78660255
H       -0.67934791      -0.69751639       2.42135241
H        0.63392994       0.61504881       2.47327442
C        0.01484550      -1.77751727      -0.01636693
H        0.67870853      -2.42144646      -0.68295456
H       -0.62264859      -2.45592969       0.64226336
C        1.78714474       0.01002794       0.00389507
H        2.44202412       0.67113390       0.66197326
H        2.45385902      -0.65136977      -0.64189061
C        0.91606151      -0.90478549       0.90901405
