154
Properties=species:S:1:pos:R:3 pbc="F F F"
C        1.79319321       1.79319321      -1.79319321
C        3.10383171       1.37445697      -2.08846739
C        3.94007133       2.14612925      -2.90960574
C        5.30978201       1.66482162      -3.27702136
C        3.40893300       3.32728231      -3.40826069
N        4.03356059       4.21384259      -4.28010515
C        3.19986775       5.25391826      -4.61711484
O        3.43004542       6.19009705      -5.34937613
C        1.89511649       4.99909282      -3.83999696
N        0.89419514       5.81299626      -3.95124681
N       -0.17827104       5.67200278      -3.13522692
C       -1.38104680       6.32662830      -3.33800747
O       -2.21503853       6.36468816      -2.43588789
C       -1.66163981       6.95298534      -4.65592601
C       -0.75599966       7.88876479      -5.18091634
C       -1.00422696       8.50950373      -6.40684694
C       -2.17312539       8.22376493      -7.10655272
C       -3.09059978       7.31085741      -6.58542394
C       -2.83863233       6.67060869      -5.36423336
Br      -4.12507944       5.39434302      -4.78933462
C        2.10767997       3.74959201      -3.09802647
C        1.27410418       2.98456332      -2.30337337
H        3.46573925       0.42906320      -1.68603906
H        5.63173197       0.84494065      -2.62621410
H        6.04428769       2.46962144      -3.17283715
H        5.31508818       1.30333273      -4.31023184
H        4.96605369       4.12546186      -4.65637033
H       -0.03849939       5.34398102      -2.18680014
H        0.15579577       8.13563837      -4.64158363
H       -0.28233846       9.21474489      -6.81147051
H       -2.36953906       8.70971270      -8.05913919
H       -3.99973844       7.09867768      -7.14368654
H        0.24806900       3.26330495      -2.10102423
C       -1.79319321      -1.79319321      -1.79319321
C       -1.22265718      -2.43751561      -2.90658328
C       -1.99364729      -3.27076088      -3.73139815
C       -1.36833005      -4.00834999      -4.87494495
C       -3.33044687      -3.42282364      -3.39120550
N       -4.26042054      -4.23801173      -4.02907606
C       -5.48039361      -4.19396777      -3.39653947
O       -6.49768441      -4.78018177      -3.69165242
C       -5.29831627      -3.20853996      -2.22735003
N       -6.28171393      -2.95160333      -1.42512094
N       -6.15899664      -1.95935941      -0.51060260
C       -7.04551766      -1.77447507       0.53640375
O       -7.03331831      -0.71987354       1.16765432
C       -7.98449380      -2.86610496       0.90332723
C       -8.83584853      -3.40116784      -0.07666509
C       -9.74356590      -4.41261520       0.24405738
C       -9.83044787      -4.87931340       1.55256901
C       -9.00398828      -4.34129700       2.53960371
C       -8.07792263      -3.33868814       2.22040105
Br      -6.95677413      -2.73311857       3.63129450
C       -3.89947064      -2.76556324      -2.29026456
C       -3.14016959      -1.95712862      -1.46474266
H       -0.16321532      -2.29881586      -3.11881034
H       -0.38213331      -3.60026677      -5.12048665
H       -1.98695829      -3.92566661      -5.77412139
H       -1.24639640      -5.06516956      -4.61708678
H       -4.09186326      -4.81857464      -4.83744798
H       -5.61208901      -1.13834462      -0.74184814
H       -8.79250209      -3.03905983      -1.10145586
H      -10.38013452      -4.83306970      -0.53067272
H      -10.53986929      -5.66382396       1.80438041
H       -9.08428622      -4.71597159       3.55763202
H       -3.54603445      -1.48909325      -0.57727048
C       -1.79319321       1.79319321       1.79319321
C       -3.18768408       1.77381456       1.60525743
C       -4.03460932       2.55485551       2.40634149
C       -5.52205689       2.48046790       2.24910020
C       -3.42854879       3.33465320       3.38127402
N       -4.07142345       4.13802622       4.31805866
C       -3.17024953       4.72825607       5.17239524
O       -3.39520219       5.48012402       6.09419239
C       -1.78517378       4.25255280       4.69647968
N       -0.71170483       4.63603478       5.31069860
N        0.50213372       4.35050937       4.78058300
C        1.69062074       4.49967198       5.47453774
O        2.75905956       4.47730621       4.86729086
C        1.66208145       4.65758325       6.95176974
C        0.88985084       5.68318783       7.52034448
C        0.86090798       5.86904787       8.90398382
C        1.62542815       5.05133955       9.73128086
C        2.41272640       4.04172973       9.17667825
C        2.43194894       3.83816930       7.78998935
Br       3.48517613       2.38812161       7.15565270
C       -2.03679130       3.36403352       3.55447363
C       -1.19945355       2.58349702       2.77909030
H       -3.61404457       1.12952896       0.83726798
H       -5.79921824       1.99772820       1.30594028
H       -5.96167525       3.48283722       2.24223382
H       -5.95696602       1.90160950       3.07007723
H       -5.06771067       4.27490636       4.40526885
H        0.60915884       4.32817815       3.77326246
H        0.29717338       6.34133324       6.88885791
H        0.24006573       6.65284367       9.33109899
H        1.60703816       5.19788340      10.80846759
H        3.00514075       3.41149632       9.83627021
H       -0.12923797       2.54693317       2.93622704
C        1.79319321      -1.79319321       1.79319321
C        1.20236235      -2.52319357       2.84120015
C        1.97394041      -3.35911526       3.66275065
C        1.33188566      -4.18647366       4.73326567
C        3.33227740      -3.42578619       3.38641241
N        4.27083721      -4.22585744       4.03081368
C        5.51696266      -4.08736567       3.46657252
O        6.54770526      -4.63659664       3.78521669
C        5.34196697      -3.05195579       2.34028350
N        6.34941379      -2.70403956       1.60498485
N        6.22049140      -1.67230061       0.73616664
C        7.14739595      -1.38817993      -0.25198691
O        7.11120281      -0.30366250      -0.82932779
C        8.15990992      -2.41046002      -0.62309840
C        8.98811614      -2.95315379       0.37241153
C        9.96290454      -3.89947067       0.04974851
C       10.13980459      -4.29149133      -1.27410366
C        9.33662461      -3.74423182      -2.27517485
C        8.34407946      -2.80756973      -1.95543947
Br       7.26467878      -2.18533470      -3.39141528
C        3.92029275      -2.68361525       2.35139044
C        3.16171806      -1.87181492       1.52850788
H        0.12776867      -2.44918741       3.00388544
H        0.31445024      -3.84188532       4.94655117
H        1.89942150      -4.12046317       5.66686162
H        1.27899931      -5.23298848       4.41666496
H        4.09284578      -4.85600875       4.79903135
H        5.62009533      -0.89309575       0.97909068
H        8.87438379      -2.64828385       1.41035012
H       10.58113598      -4.32779298       0.83494798
H       10.90138705      -5.02505455      -1.52712877
H        9.48753475      -4.06013923      -3.30504819
H        3.58629420      -1.33781767       0.68828631
C       -0.00445707       0.01189536      -1.78238275
H       -0.66409135       0.67374010      -2.43557963
H        0.65740317      -0.63156657      -2.45157240
C       -0.90989263      -0.90692880      -0.91072765
C        0.90977584       0.90977584      -0.90977584
C       -0.00465871       1.77757030       0.00794375
H       -0.66225468       2.44313916      -0.64384735
H        0.64322798       2.43503045       0.67728295
C       -1.78241447       0.00034974      -0.00472694
H       -2.45427497      -0.65498947       0.64260836
H       -2.43311707       0.67328779      -0.65473579
C       -0.91132561       0.90220522       0.91563759
C       -0.01476271      -0.02253852       1.78660255
H       -0.67934791      -0.69751639       2.42135241
H        0.63392994       0.61504881       2.47327442
C        0.01484550      -1.77751727      -0.01636693
H        0.67870853      -2.42144646      -0.68295456
H       -0.62264859      -2.45592969       0.64226336
C        1.78714474       0.01002794       0.00389507
H        2.44202412       0.67113390       0.66197326
H        2.45385902      -0.65136977      -0.64189061
C        0.91606151      -0.90478549       0.90901405
