133
Properties=species:S:1:pos:R:3 pbc="F F F"
C        0.00000000       0.00000000       0.00000000
C        0.88328919       0.88328919      -0.88328919
C        2.19392769       0.46455294      -1.17856337
C        3.03016730       1.23622522      -1.99970172
C        4.39987799       0.75491760      -2.36711734
C        2.49902898       2.41737828      -2.49835667
N        3.12365657       3.30393856      -3.37020112
C        2.28996372       4.34401423      -3.70721081
O        2.52014139       5.28019303      -4.43947210
C        0.98521246       4.08918879      -2.93009293
N       -0.01570889       4.90309224      -3.04134278
N       -1.08817507       4.76209875      -2.22532289
C       -2.29095082       5.41672428      -2.42810345
O       -3.12494256       5.45478414      -1.52598387
C       -2.57154384       6.04308131      -3.74602198
C       -1.66590369       6.97886076      -4.27101231
C       -1.91413099       7.59959971      -5.49694292
C       -3.08302941       7.31386090      -6.19664870
C       -4.00050381       6.40095339      -5.67551991
C       -3.74853636       5.76070466      -4.45432933
Br      -5.03498347       4.48443899      -3.87943059
C        1.19777594       2.83968799      -2.18812244
C        0.36420015       2.07465929      -1.39346935
H        2.55583523      -0.48084082      -0.77613504
H        4.72182794      -0.06496337      -1.71631008
H        5.13438367       1.55971742      -2.26293313
H        4.40518415       0.39342871      -3.40032781
H        4.05614966       3.21555783      -3.74646631
H       -0.94840342       4.43407699      -1.27689612
H       -0.75410826       7.22573434      -3.73167961
H       -1.19224249       8.30484087      -5.90156648
H       -3.27944308       7.79980867      -7.14923517
H       -4.90964246       6.18877366      -6.23378251
H       -0.66183502       2.35340093      -1.19112020
C       -0.88328919      -0.88328919      -0.88328919
C       -2.27808193      -0.86103191      -0.69793015
C       -3.12497050      -1.64198954      -1.49913420
C       -4.61256359      -1.56461035      -1.34473898
C       -2.51855966      -2.42466335      -2.47154092
N       -3.16119221      -3.22857136      -3.40803269
C       -2.25954288      -3.82199496      -4.25965093
O       -2.48418823      -4.57513087      -5.18048742
C       -0.87447053      -3.34794524      -3.78207841
N        0.19941325      -3.73449751      -4.39364187
N        1.41280387      -3.45021483      -3.86183562
C        2.60227730      -3.60280297      -4.55335124
O        3.66964889      -3.58127407      -3.94420027
C        2.57613714      -3.76335345      -6.03034314
C        1.80307445      -4.78858612      -6.59845773
C        1.77630955      -4.97691401      -7.98180718
C        2.54382180      -4.16210630      -8.80919568
C        3.33194834      -3.15292120      -8.25499663
C        3.34901964      -2.94686975      -6.86864754
Br       4.40373174      -1.49758663      -6.23503123
C       -1.12654530      -2.45689045      -2.64215062
C       -0.28919837      -1.67646664      -1.86666378
H       -2.70466387      -0.21457365       0.06810807
H       -4.89055982      -1.07964964      -0.40296519
H       -5.05401939      -2.56616427      -1.33685056
H       -5.04492338      -0.98645876      -2.16755854
H       -4.15756692      -3.36379794      -3.49680895
H        1.51803724      -3.42624291      -2.85436402
H        1.20805123      -5.44450078      -5.96685614
H        1.15481804      -5.76035628      -8.40862662
H        2.52712400      -4.31057894      -9.88614582
H        3.92670870      -2.52496918      -8.91465324
H        0.78136608      -1.64213570      -2.02191648
C       -0.88328919       0.88328919       0.88328919
C       -1.99891567       0.31362300       1.52450532
C       -2.82384526       1.08459776       2.35765123
C       -3.96990143       0.46003440       3.09197709
C       -2.48147176       2.42048480       2.51280737
N       -3.11913146       3.35013083       3.32853397
C       -2.48426830       4.56901348       3.28790700
O       -2.77858810       5.58576556       3.87545286
C       -1.31359956       4.38659425       2.30430038
N       -0.50908737       5.36898130       2.05065746
N        0.40703308       5.24640451       1.05987515
C        1.45601025       6.13133075       0.87855641
O        2.08918257       6.11990919      -0.17490117
C        1.82264754       7.06761550       1.97259150
C        0.84323941       7.91979032       2.50741849
C        1.16376626       8.82504938       3.52112852
C        2.47157216       8.90865631       3.99039603
C        3.45807396       8.08136899       3.45267446
C        3.13901680       7.15774262       2.44777182
Br       4.54895771       6.03510957       1.84273427
C       -1.37827327       2.98868555       1.85862756
C       -0.55266090       2.22935280       1.05031509
H       -2.21283774      -0.74516806       1.38345977
H       -4.21650591      -0.52495405       2.68162280
H       -4.86778257       1.08047237       3.00877927
H       -3.71421923       0.33567838       4.14904306
H       -3.92888264       3.18199654       3.90729463
H        0.17629608       4.70143800       0.23742777
H       -0.18095941       7.87900245       2.14334383
H        0.38943549       9.46227112       3.94132924
H        2.72324171       9.61616535       4.77667712
H        4.47555524       8.15909756       3.82937139
H        0.33641975       2.63444057       0.58466528
C        0.88328919      -0.88328919       0.88328919
C        1.93149597      -0.29250648       1.61304155
C        2.75305620      -1.06408236       2.44895568
C        3.82379355      -0.42206445       3.27605492
C        2.47652253      -2.42236742       2.51587397
N        3.12090286      -3.36090367       3.31598973
C        2.55645220      -4.60696466       3.17777191
O        2.87502352      -5.63767235       3.72711064
C        1.43003300      -4.43195520       2.14250599
N        0.69452928      -5.43934336       1.79485348
N       -0.17442553      -5.31044561       0.76322650
C       -1.16276230      -6.23724359       0.47939561
O       -1.74026181      -6.20112718      -0.60503992
C       -1.53387228      -7.24954670       1.50188505
C       -0.53840556      -8.07782144       2.04455352
C       -0.86107287      -9.05241780       2.99106670
C       -2.18489244      -9.22905820       3.38331443
C       -3.18592490      -8.42580954       2.83608486
C       -2.86618109      -7.43345452       1.89922421
Br      -4.30208771      -6.35393071       1.27704312
C        1.44129931      -3.01033842       1.77394864
C        0.61840870      -2.25176205       0.96215804
H        2.09433265       0.78205136       1.53884815
H        4.03718084       0.59528653       2.93128035
H        4.75729362      -0.98975154       3.20998906
H        3.50735921      -0.36897184       4.32260962
H        3.88924280      -3.18293315       3.94599786
H        0.06847143      -4.71020422      -0.01610595
H        0.49950407      -7.96429229       1.73950933
H       -0.07590214      -9.67070325       3.41936376
H       -2.43792177      -9.99049136       4.11703117
H       -4.21577325      -8.57651603       3.15217093
H       -0.22195791      -2.67629183       0.42835219
