170
Properties=species:S:1:pos:R:3 pbc="F F F"
C        1.79257310       1.79257310      -1.79257310
C        1.55097084       3.16630148      -1.84969443
C        2.35361026       3.98074018      -2.65130636
C        3.38989866       3.41348979      -3.39448840
O        4.17732453       4.21247700      -4.17555573
C        3.62567002       2.03423663      -3.34040137
C        4.71589554       1.43868489      -4.14126136
N        4.96815352       0.16572689      -4.12317300
C        6.03699626      -0.27598778      -4.92020145
C        7.35334501       0.14057286      -4.65230976
C        8.43907295      -0.29759383      -5.42681163
C        8.17793601      -1.18742767      -6.47373260
N        9.01841587      -1.77904658      -7.37929180
C        8.21510545      -2.52482948      -8.11676613
O        6.88923982      -2.46095927      -7.75835192
C        6.87505682      -1.59702302      -6.70019922
C        5.77520854      -1.18063469      -5.95844844
C        8.55737607      -3.39104043      -9.24371213
C        9.90022671      -3.49908925      -9.64332824
C       10.26994361      -4.31464819     -10.71615675
C        9.29814929      -5.03523725     -11.40563862
C        7.96297756      -4.93630587     -11.01772896
Br       6.64475467      -5.91493149     -11.95533811
C        7.58886508      -4.12261302      -9.94557874
C        2.82466915       1.22002977      -2.53179287
H        0.74186052       3.60977748      -1.27376531
H        2.15412924       5.04776205      -2.68383395
H        3.87311491       5.13347448      -4.10497192
H        5.31213429       2.13025626      -4.76438776
H        7.53899930       0.81732960      -3.82186059
H        9.44974695       0.03376058      -5.21959041
H        4.77449388      -1.53520455      -6.16906304
H       10.67139502      -2.94109018      -9.11275840
H       11.31421789      -4.38510682     -11.01010352
H        9.58937136      -5.66838586     -12.24009342
H        6.54149974      -4.05981001      -9.65879451
H        3.00802995       0.14955165      -2.48428870
C       -1.79257310      -1.79257310      -1.79257310
C       -2.10917238      -1.37222583      -3.08556855
C       -2.91275630      -2.17302986      -3.89987065
C       -3.39827254      -3.38732565      -3.41227867
O       -4.18139983      -4.17206984      -4.21188759
C       -3.08454645      -3.80326199      -2.11249957
C       -3.61407796      -5.08372258      -1.59804125
N       -3.35070759      -5.50668701      -0.39965881
C       -3.90490846      -6.74392446      -0.03237702
C       -3.52632518      -7.92582604      -0.69407642
C       -4.05673897      -9.17532672      -0.33622505
C       -4.96866930      -9.21884166       0.72327002
N       -5.63630842     -10.27224357       1.28989090
C       -6.34649736      -9.71511661       2.25457187
O       -6.19436360      -8.35272788       2.36045901
C       -5.30606439      -8.04226758       1.37009895
C       -4.80601886      -6.78746379       1.04046037
C       -7.25525352     -10.35750812       3.20271387
C       -7.43791609     -11.74951379       3.14296418
C       -8.29833187     -12.40261342       4.02949312
C       -8.98961841     -11.66954654       4.99061429
C       -8.81579392     -10.28825580       5.05964908
Br      -9.75560406      -9.29441223       6.36485500
C       -7.95635281      -9.63124092       4.17576293
C       -2.27393992      -3.00286989      -1.29968198
H       -1.73441516      -0.42476427      -3.46622387
H       -3.14878070      -1.83303937      -4.90390517
H       -4.30745840      -3.73344771      -5.07065519
H       -4.25229709      -5.67094025      -2.28354098
H       -2.80118754      -7.87444056      -1.50256139
H       -3.76646921     -10.08089320      -0.85573553
H       -5.09436327      -5.89545649       1.58146740
H       -6.90323681     -12.33592624       2.39609981
H       -8.42620416     -13.48042255       3.96741213
H       -9.65853912     -12.18092943       5.67838963
H       -7.83464491      -8.55267750       4.24683817
H       -2.02500181      -3.32514105      -0.29172744
C       -1.79257310       1.79257310       1.79257310
C       -2.57964423       1.20359471       2.78372782
C       -3.38716736       2.00213923       3.59635021
C       -3.40510800       3.38493557       3.40783329
O       -4.19293318       4.16575209       4.20667199
C       -2.61961977       3.97229171       2.40839653
C       -2.65465587       5.43590589       2.20528003
N       -1.94522575       6.02184444       1.28998323
C       -2.05829064       7.41918764       1.20373166
C       -1.63967905       8.24100761       2.26554098
C       -1.73085810       9.64017593       2.19725672
C       -2.23662414      10.20541262       1.02220418
N       -2.43549225      11.51396190       0.66920693
C       -2.92281041      11.44080501      -0.55657332
O       -3.06418471      10.16083172      -1.03838395
C       -2.62056145       9.37240625      -0.01473468
C       -2.54995823       7.98419669       0.01886736
C       -3.32171002      12.53218289      -1.44384514
C       -3.18748659      13.85953481      -1.00255570
C       -3.55824979      14.93170615      -1.81850377
C       -4.06981469      14.68950457      -3.09076860
C       -4.20686703      13.37690533      -3.53937172
Br      -4.90215057      13.04985074      -5.26684002
C       -3.83709390      12.30202961      -2.72729271
C       -1.80597587       3.17162418       1.59889174
H       -2.56946688       0.12586358       2.93007284
H       -3.99241155       1.52922677       4.36408692
H       -4.67473475       3.60148232       4.83534424
H       -3.31919123       6.01613586       2.87145123
H       -1.23092487       7.78390060       3.16336402
H       -1.41378647      10.26689878       3.02241269
H       -2.85550970       7.37435828      -0.82151561
H       -2.78840381      14.06398827      -0.00932884
H       -3.44667175      15.95163249      -1.45908965
H       -4.35766610      15.52607645      -3.72266363
H       -3.95176894      11.28537916      -3.09666386
H       -1.19169406       3.62511155       0.82506469
C        1.79257310      -1.79257310       1.79257310
C        1.62201256      -3.17786152       1.76709267
C        2.42533342      -3.99221346       2.56810992
C        3.39092469      -3.41367073       3.39328143
O        4.17928926      -4.21228744       4.17378056
C        3.55522177      -2.02332960       3.42175665
C        4.57017384      -1.41690781       4.30876014
N        4.75476026      -0.13365945       4.36863370
C        5.75678771       0.31846359       5.24288582
C        7.10535689      -0.01602484       5.02484591
C        8.12555371       0.43461647       5.87735351
C        7.76464590       1.25297093       6.95256596
N        8.52543704       1.83723956       7.93046361
C        7.64717730       2.50098715       8.66085195
O        6.34645813       2.38927349       8.22944784
C        6.43197892       1.58340473       7.12965882
C        5.39487991       1.15202075       6.31016313
C        7.88525083       3.32206757       9.84686450
C        9.19846610       3.47650236      10.32250196
C        9.46935379       4.25134454      11.45344292
C        8.42684052       4.88399539      12.12570553
C        7.12020425       4.73841771      11.66261410
Br       5.70587206       5.59762872      12.57691795
C        6.84479899       3.96517781      10.53220961
C        2.75390166      -1.20875269       2.61383744
H        0.86791260      -3.63038375       1.12710695
H        2.28166451      -5.06818131       2.53587943
H        3.92860698      -5.14242901       4.04052531
H        5.17013652      -2.10965527       4.92698653
H        7.36865905      -0.63724878       4.17228165
H        9.16165876       0.16638919       5.70782837
H        4.36729700       1.44372388       6.48477924
H       10.02417704       2.98736544       9.80625164
H       10.49215716       4.35880924      11.80586668
H        8.64124653       5.48566240      13.00549480
H        5.81814189       3.86480940      10.18715176
H        2.88206799      -0.12935529       2.63044701
C       -0.00445707       0.01189536      -1.78238275
H       -0.66409135       0.67374010      -2.43557963
H        0.65740317      -0.63156657      -2.45157240
C       -0.90989263      -0.90692880      -0.91072765
C        0.90977584       0.90977584      -0.90977584
C       -0.00465871       1.77757030       0.00794375
H       -0.66225468       2.44313916      -0.64384735
H        0.64322798       2.43503045       0.67728295
C       -1.78241447       0.00034974      -0.00472694
H       -2.45427497      -0.65498947       0.64260836
H       -2.43311707       0.67328779      -0.65473579
C       -0.91132561       0.90220522       0.91563759
C       -0.01476271      -0.02253852       1.78660255
H       -0.67934791      -0.69751639       2.42135241
H        0.63392994       0.61504881       2.47327442
C        0.01484550      -1.77751727      -0.01636693
H        0.67870853      -2.42144646      -0.68295456
H       -0.62264859      -2.45592969       0.64226336
C        1.78714474       0.01002794       0.00389507
H        2.44202412       0.67113390       0.66197326
H        2.45385902      -0.65136977      -0.64189061
C        0.91606151      -0.90478549       0.90901405
