190
Properties=species:S:1:pos:R:3 pbc="F F F"
C        1.79149721       1.79149721      -1.79149721
C        2.00297942       3.12421831      -1.44462898
C        2.82280392       3.92582718      -2.24414918
C        3.43096079       3.39863156      -3.39408314
C        3.20069122       2.05838206      -3.73861563
C        2.38368381       1.25606298      -2.93440960
C        4.33187403       4.29281529      -4.17658544
O        4.63649257       5.41715053      -3.81456043
O        4.76966672       3.63711542      -5.31691835
C        5.72463380       4.20700608      -6.19072880
C        5.70648584       5.56450210      -6.51632583
C        6.64130577       6.06984919      -7.42297033
C        7.57252104       5.21484326      -8.01408190
C        7.57899551       3.85302838      -7.71588341
C        6.64801898       3.34523104      -6.80274533
C        6.61447066       1.89864484      -6.50734747
N        7.33135884       1.03665770      -7.16332416
N        7.11249473      -0.29280036      -6.88102097
C        5.84328822      -0.83849963      -6.68621676
O        4.79119441      -0.20673956      -6.61923133
C        5.78367384      -2.32117575      -6.58220897
C        4.59561832      -2.95689162      -6.94898756
C        4.52312521      -4.32975252      -6.81641241
N        5.53751478      -5.08676335      -6.34787977
C        6.67015240      -4.44646522      -5.98767940
C        6.84478817      -3.07643692      -6.08364862
H        1.54293167       3.54705660      -0.55481555
H        2.99042102       4.96387080      -1.96037037
H        3.65180810       1.61110122      -4.62242427
H        2.22198646       0.21579075      -3.20777782
H        4.97431773       6.24006710      -6.08259027
H        6.62949394       7.12990756      -7.66545800
H        8.29568589       3.18994549      -8.19350666
H        5.94809584       1.58426737      -5.68881116
H        7.83901196      -0.89895090      -7.24891852
H        3.74599891      -2.39527685      -7.32505886
H        3.62131370      -4.87282632      -7.08547221
H        7.45575951      -5.08745121      -5.59633362
H        7.77105334      -2.62952207      -5.74289278
C        8.52872197       5.74424878      -8.95163701
C        9.32954025       6.18762590      -9.73683941
Br      10.62439569       6.90452921     -11.00644527
C       -1.79149721      -1.79149721      -1.79149721
C       -1.96057332      -1.47377851      -3.13747489
C       -2.75536790      -2.29050401      -3.94690837
C       -3.38580082      -3.42512564      -3.41274902
C       -3.21682419      -3.72752599      -2.05333873
C       -2.41687322      -2.91159554      -1.24568763
C       -4.18036251      -4.28073291      -4.34017933
O       -4.22770388      -4.09555761      -5.54494205
O       -4.79785123      -5.29754460      -3.62830465
C       -5.52843707      -6.32559243      -4.26833918
C       -6.35898925      -6.06780164      -5.36052287
C       -7.09813707      -7.10894916      -5.92703906
C       -7.02036020      -8.39363162      -5.38745437
C       -6.21527157      -8.65329332      -4.27934240
C       -5.46841090      -7.61359588      -3.71398858
C       -4.64297500      -7.86253347      -2.51495452
N       -4.67787069      -8.98730482      -1.86616519
N       -3.96125731      -9.04714940      -0.69230864
C       -3.92079946      -8.00771590       0.23751001
O       -4.40165746      -6.88699505       0.08496633
C       -3.25569512      -8.31991573       1.53090379
C       -3.64886555      -7.59977575       2.66092704
C       -3.00599986      -7.85926888       3.85548364
N       -2.01672937      -8.76803171       3.98612988
C       -1.64631069      -9.44101690       2.87596101
C       -2.22804269      -9.25715232       1.63319515
H       -1.47579371      -0.60096550      -3.56804461
H       -2.87435426      -2.04015348      -5.00015446
H       -3.68905849      -4.59681873      -1.59945637
H       -2.28626450      -3.16359375      -0.19569678
H       -6.44862596      -5.06916585      -5.77918329
H       -7.73575939      -6.90502243      -6.78407769
H       -6.17326602      -9.65243641      -3.85343562
H       -3.98353382      -7.03923103      -2.19840952
H       -3.84316310      -9.99562423      -0.35019225
H       -4.43428509      -6.85193797       2.61044213
H       -3.27215755      -7.32547858       4.76367655
H       -0.83343468     -10.14845209       3.01724485
H       -1.85413248      -9.81012376       0.77983219
C       -7.79029853      -9.45922174      -5.97508749
C       -8.43512187     -10.35165347      -6.46723022
Br      -9.47774668     -11.79464009      -7.26298339
C       -1.79149721       1.79149721       1.79149721
C       -2.09966487       1.38434412       3.08781773
C       -2.89398424       2.19976715       3.89902889
C       -3.38500854       3.42273507       3.41593187
C       -3.07699706       3.81574084       2.10495101
C       -2.27764622       3.00052567       1.29598450
C       -4.18613217       4.26745773       4.34768486
O       -4.35086059       3.99265637       5.52468658
O       -4.65837279       5.38631182       3.67901587
C       -5.35776821       6.41947513       4.34512533
C       -6.29647528       6.14845834       5.34238015
C       -6.99704978       7.20115847       5.93591704
C       -6.77238434       8.51297944       5.51608243
C       -5.85745715       8.78928904       4.50116110
C       -5.14920740       7.73727739       3.90951056
C       -4.20713408       8.00835884       2.80497006
N       -4.09763018       9.17960369       2.25410683
N       -3.28069593       9.27020643       1.14981298
C       -3.24283637       8.30763846       0.14053051
O       -3.82179837       7.22366466       0.15822315
C       -2.44694445       8.66271104      -1.06494843
C       -2.79747247       8.07015914      -2.27991735
C       -2.03628103       8.36699798      -3.39349392
N       -0.97093557       9.19521211      -3.36751648
C       -0.64502125       9.74444130      -2.17809597
C       -1.34366087       9.51368606      -1.00534707
H       -1.72380791       0.44203643       3.47895947
H       -3.12203852       1.87830484       4.91431884
H       -3.43867596       4.75531544       1.69134220
H       -2.03819729       3.32237320       0.28498455
H       -6.50002948       5.13128553       5.66566008
H       -7.71976635       6.98565639       6.71943676
H       -5.70055045       9.81161350       4.16697409
H       -3.58995398       7.15914886       2.47207153
H       -3.05938163      10.22909151       0.90050644
H       -3.64080927       7.39064622      -2.35567456
H       -2.26496108       7.93117892      -4.36218041
H        0.23017340      10.38863094      -2.19381563
H       -1.00175559       9.96365399      -0.08098553
C       -7.50342158       9.59092756       6.13025861
C       -8.11566527      10.49370912       6.64463117
Br      -9.10561154      11.95343054       7.47632809
C        1.79149721      -1.79149721       1.79149721
C        2.42838553      -2.90193466       1.24150652
C        3.24752564      -3.69911034       2.04614431
C        3.42992447      -3.39053307       3.40321794
C        2.77384478      -2.27637582       3.94746832
C        1.95814622      -1.47665352       3.13935665
C        4.35409470      -4.25270637       4.19447368
O        5.02450268      -5.14375934       3.69994152
O        4.34351535      -3.85705964       5.52312549
C        5.21023225      -4.42855312       6.48358331
C        5.49593982      -5.79506232       6.49631162
C        6.31912106      -6.31926826       7.49573597
C        6.83327240      -5.48165180       8.48652201
C        6.52962321      -4.12106852       8.49721557
C        5.71075301      -3.59197099       7.49327135
C        5.34574926      -2.16111251       7.51360121
N        5.64317409      -1.38014157       8.50802504
N        5.13362125      -0.10203146       8.46506263
C        3.83480344       0.19421161       8.05041352
O        3.03501705      -0.60312771       7.56554142
C        3.39489389       1.60098941       8.25080258
C        2.02851453       1.84509145       8.40429118
C        1.61265152       3.15394235       8.55107592
N        2.45628189       4.20744155       8.54979086
C        3.77053293       3.94549229       8.38632594
C        4.28920199       2.67097467       8.23377254
H        2.30121455      -3.15245090       0.19113837
H        3.74919248      -4.55967943       1.60579028
H        2.88721676      -2.00317816       4.99493867
H        1.46362928      -0.60988795       3.57203780
H        5.08601984      -6.46524609       5.74570916
H        6.54693632      -7.38264192       7.49528126
H        6.91913842      -3.47789399       9.28210563
H        4.80802293      -1.78328492       6.62986652
H        5.57120500       0.51986495       9.13763953
H        1.30554882       1.03514495       8.40537706
H        0.56088783       3.39857090       8.67164266
H        4.41494922       4.82051278       8.37020547
H        5.35277068       2.54137245       8.07302582
C        7.67654784      -6.03236017       9.51569974
C        8.38279102      -6.49357844      10.37763610
Br       9.52472652      -7.23932937      11.77131428
C       -0.00445707       0.01189536      -1.78238275
H       -0.66409135       0.67374010      -2.43557963
H        0.65740317      -0.63156657      -2.45157240
C       -0.90989263      -0.90692880      -0.91072765
C        0.90977584       0.90977584      -0.90977584
C       -0.00465871       1.77757030       0.00794375
H       -0.66225468       2.44313916      -0.64384735
H        0.64322798       2.43503045       0.67728295
C       -1.78241447       0.00034974      -0.00472694
H       -2.45427497      -0.65498947       0.64260836
H       -2.43311707       0.67328779      -0.65473579
C       -0.91132561       0.90220522       0.91563759
C       -0.01476271      -0.02253852       1.78660255
H       -0.67934791      -0.69751639       2.42135241
H        0.63392994       0.61504881       2.47327442
C        0.01484550      -1.77751727      -0.01636693
H        0.67870853      -2.42144646      -0.68295456
H       -0.62264859      -2.45592969       0.64226336
C        1.78714474       0.01002794       0.00389507
H        2.44202412       0.67113390       0.66197326
H        2.45385902      -0.65136977      -0.64189061
C        0.91606151      -0.90478549       0.90901405
