193
Properties=species:S:1:pos:R:3 pbc="F F F"
C        0.00000000       0.00000000       0.00000000
C        8.23140980       6.37441353      -7.70554416
O        6.96920441       6.75223626      -7.16773404
C        6.26554791       5.76849963      -6.53049270
C        6.48831764       4.40093436      -6.65785673
C        5.68809551       3.49085591      -5.95573123
C        4.63770638       3.91818581      -5.12023166
C        4.43640051       5.30214459      -5.00178426
C        5.23299676       6.21367231      -5.70542641
C        3.77238334       2.95499118      -4.40974215
N        3.28513560       3.34235961      -3.20950589
C        2.50615515       2.50565080      -2.50299688
C        2.03640636       2.94840733      -1.27329095
C        1.22594780       2.15506022      -0.45840089
C        0.88113924       0.88113924      -0.88113924
C        1.33755394       0.40634679      -2.10894666
C        2.15032999       1.21430010      -2.94816371
C        2.65527196       0.83602792      -4.21314989
C        3.45607050       1.71975296      -4.94412630
C        2.33146988      -0.47194013      -4.84519868
O        1.27835862      -1.07231768      -4.72676611
O        3.38402533      -0.85835542      -5.61126444
C        3.21157556      -2.09470540      -6.30208778
C        3.53110634      -3.30425873      -5.43155458
O        3.92000824      -3.19644784      -4.26864336
C        3.39976864      -4.66367467      -6.03786428
C        3.66180532      -5.78083710      -5.23146407
C        3.57120985      -7.07267988      -5.75689958
C        3.21849348      -7.25042042      -7.09206404
Br       3.10007468      -8.99447615      -7.80976652
C        2.95451821      -6.14945831      -7.90489039
C        3.04429050      -4.85576641      -7.38011063
H        8.72514031       7.28064086      -8.06899408
H        8.11276986       5.69746772      -8.55778117
H        8.87200887       5.93057867      -6.93544647
H        7.26870337       4.00506920      -7.29909973
H        5.91072549       2.43148935      -6.06718345
H        3.64319157       5.68271182      -4.36018614
H        5.04774905       7.27989000      -5.60084837
H        2.31127878       3.94607215      -0.93550723
H        0.87908752       2.54260677       0.49580525
H        1.05812476      -0.60055563      -2.41214032
H        3.81060365       1.45043593      -5.93358304
H        3.92060656      -2.07716973      -7.13682218
H        2.19752384      -2.16939745      -6.71044961
H        3.94046878      -5.65170062      -4.18641277
H        3.77747120      -7.92681542      -5.11682343
H        2.67980071      -6.28787007      -8.94810180
H        2.83348097      -4.02462377      -8.04657290
C       -8.42527940      -7.37176992      -6.51431817
O       -7.19145205      -6.78510295      -6.91261971
C       -6.62892087      -5.90489418      -6.03072519
C       -7.29023612      -5.27723941      -4.97963321
C       -6.60068253      -4.38458219      -4.14941793
C       -5.23972487      -4.08377075      -4.35262823
C       -4.59187190      -4.73411805      -5.41433942
C       -5.28011458      -5.62430633      -6.24767456
C       -4.52477405      -3.11439396      -3.49794866
N       -3.20865425      -3.34117947      -3.28716738
C       -2.50389265      -2.50689210      -2.50401808
C       -1.15701766      -2.78728432      -2.31380265
C       -0.33765002      -1.98773252      -1.51402636
C       -0.88113924      -0.88113924      -0.88113924
C       -2.22947850      -0.57337099      -1.04999790
C       -3.06410704      -1.37496587      -1.87372090
C       -4.43681569      -1.14596762      -2.12166646
C       -5.15732027      -2.01518156      -2.94744792
C       -5.16360149       0.03072083      -1.57184777
O       -4.68240616       1.13378846      -1.38418934
O       -6.45928366      -0.31676752      -1.36088317
C       -7.29200360       0.72295254      -0.84990687
C       -7.18992914       0.86763202       0.66389492
O       -6.47786420       0.13507139       1.35058904
C       -8.02014531       1.91677479       1.32941226
C       -7.90572232       2.07504585       2.71824417
C       -8.67467339       3.02944261       3.38980123
C       -9.56154128       3.82839970       2.67300448
Br     -10.60822163       5.11658200       3.57627458
C       -9.68503747       3.68266086       1.29242632
C       -8.91553870       2.72808263       0.61882134
H       -8.68623726      -8.13597125      -7.25256675
H       -9.23171540      -6.63135643      -6.50494692
H       -8.33178396      -7.86552090      -5.54072915
H       -8.34232893      -5.45069982      -4.77984355
H       -7.15052068      -3.93269876      -3.32617885
H       -3.53732483      -4.54245087      -5.60631383
H       -4.75406109      -6.10647419      -7.06795214
H       -0.72890887      -3.65978328      -2.80416601
H        0.71185213      -2.24322483      -1.39451633
H       -2.63147842       0.29661297      -0.53484400
H       -6.20008964      -1.81974126      -3.17479173
H       -8.32007913       0.43749890      -1.09767878
H       -7.06772929       1.67430543      -1.34515214
H       -7.21620529       1.45323602       3.28778835
H       -8.57239947       3.13833119       4.46658907
H      -10.37831308       4.30598801       0.73229264
H       -9.04295048       2.64391670      -0.45639633
C       -7.64337872       6.39365392       8.27433486
O       -6.82984067       6.85681522       7.20251881
C       -5.99788628       5.93334284       6.63331112
C       -5.62059178       4.72197083       7.20454612
C       -4.75046515       3.86388921       6.52032830
C       -4.22333649       4.19577743       5.25700993
C       -4.62350932       5.41922177       4.69759828
C       -5.49061006       6.28015858       5.38132683
C       -3.27740552       3.30545261       4.55425855
N       -3.32821630       3.30561840       3.20316640
C       -2.50681504       2.50446907       2.50351873
C       -2.60280478       2.53691899       1.11838086
C       -1.80028618       1.73974288       0.29937984
C       -0.88113924       0.88113924       0.88113924
C       -0.76134574       0.82343313       2.26806852
C       -1.56503686       1.64238182       3.10537513
C       -1.51574635       1.67088203       4.51782138
C       -2.36816424       2.51702058       5.23476493
C       -0.54475505       0.85905947       5.30091391
O        0.58419166       0.57143894       4.94555977
O       -1.10876299       0.53518165       6.49298971
C       -0.28290096      -0.23174987       7.36780684
C       -0.32400195      -1.72345658       7.05785683
O       -1.02403724      -2.19223296       6.16039950
C        0.49122790      -2.64290197       7.90808811
C        0.48168041      -4.01260254       7.60671525
C        1.21255176      -4.91561476       8.38359607
C        1.95515383      -4.45028061       9.46557155
Br       2.94071859      -5.66717027      10.52325390
C        1.97452718      -3.09175032       9.77622780
C        1.24382911      -2.18663239       8.99909623
H       -8.33488802       7.19834593       8.54154131
H       -7.04109458       6.16688656       9.16003762
H       -8.24054056       5.52664831       7.97084513
H       -5.97579461       4.41463592       8.18244177
H       -4.49868734       2.91694338       6.99376757
H       -4.25112039       5.71646798       3.71850116
H       -5.77604434       7.22566635       4.92677674
H       -3.32870412       3.20537087       0.65878317
H       -1.90758122       1.79875178      -0.78044397
H       -0.03721010       0.13449206       2.69800728
H       -2.30456437       2.57362759       6.31643067
H       -0.68557652      -0.08049075       8.37517324
H        0.74800294       0.13901494       7.34756400
H       -0.09790690      -4.38629636       6.76357039
H        1.19365706      -5.97370366       8.13483993
H        2.55380017      -2.72799852      10.62183113
H        1.28294012      -1.13711281       9.27548303
C        8.51847717      -7.09430999       6.69858034
O        7.16533962      -6.75011588       6.97371921
C        6.59612349      -5.82661927       6.14179749
C        7.28673414      -4.95783956       5.30253503
C        6.58430417      -4.04749148       4.50288700
C        5.17815796      -3.96948270       4.52848319
C        4.50284552      -4.86030715       5.37717669
C        5.20318251      -5.76890798       6.18000499
C        4.44213698      -2.98367857       3.71130112
N        3.21885307      -3.35063705       3.26751099
C        2.50434715      -2.50684654       2.50360914
C        1.25661862      -2.93364307       2.06784293
C        0.43771262      -2.13673963       1.26495666
C        0.88113924      -0.88113924       0.88113924
C        2.12888924      -0.42400703       1.29995112
C        2.95980210      -1.22460653       2.12838517
C        4.23306244      -0.85366157       2.61772576
C        4.96268524      -1.73618792       3.42107659
C        4.83352852       0.48227469       2.35347460
O        4.21482684       1.52566779       2.24364800
O        6.18420712       0.35098347       2.30371070
C        6.90457185       1.56117294       2.07555902
C        6.98698952       1.92683636       0.59824903
O        6.49857104       1.22172542      -0.28464186
C        7.72435318       3.17019689       0.21980196
C        7.77563000       3.52783959      -1.13535811
C        8.46877300       4.67116826      -1.54217519
C        9.11367667       5.46017232      -0.59336725
Br      10.05741763       7.00405867      -1.13799392
C        9.07042345       5.11731531       0.75684215
C        8.37649584       3.97341303       1.16555191
H        8.79390131      -7.92258570       7.35828826
H        9.19224627      -6.25932113       6.91645136
H        8.63648216      -7.43693842       5.66461343
H        8.37025526      -4.95363576       5.24898127
H        7.16263542      -3.40157174       3.84519113
H        3.41512002      -4.84580430       5.42516521
H        4.65327983      -6.44076644       6.83444115
H        0.90856586      -3.92221410       2.36207820
H       -0.53260410      -2.51001938       0.94847375
H        2.45515401       0.56246467       0.97702011
H        5.92125149      -1.43951567       3.83385548
H        7.92158974       1.38221531       2.44088458
H        6.46856314       2.38360109       2.65361395
H        7.27599416       2.91570801      -1.88510523
H        8.49743707       4.93309790      -2.59685996
H        9.57477203       5.73291946       1.49817986
H        8.36874905       3.73931924       2.22600030
