166
Properties=species:S:1:pos:R:3 pbc="F F F"
C        1.79171818       1.79171818      -1.79171818
C        2.77219847       2.59021988      -1.20680348
C        3.57851364       3.39465753      -2.01355713
C        3.40340183       3.40252029      -3.40328230
C        2.41881934       2.59612667      -3.98223072
C        1.61105627       1.79049398      -3.17475869
C        4.28029288       4.23082511      -4.22943630
C        5.46207437       3.80755205      -4.68296203
N        6.01714022       2.57038905      -4.53705812
C        7.28597657       2.55370994      -5.09873395
S        8.21163836       1.17867940      -5.13832775
N        7.55151253       3.82209818      -5.58203153
C        8.76965354       4.30117301      -6.19097195
N        9.32417313       5.39235536      -5.39302436
C        9.75474919       5.14453268      -4.08305087
C       10.42454489       3.97439160      -3.70748773
C       10.85250990       3.77255071      -2.39074348
C       10.65409289       4.76194103      -1.43275330
C       10.04594594       5.95570497      -1.80599995
Br       9.80216718       7.32261264      -0.52166289
C        9.61365354       6.15382843      -3.11964428
C        6.45577745       4.64385940      -5.42139765
O        6.30927589       5.80198258      -5.76767937
H        2.91762696       2.59435782      -0.12959118
H        4.34443419       4.01386537      -1.55007245
H        2.27253164       2.58807379      -5.05999368
H        0.84600684       1.16803882      -3.63177991
H        3.95359648       5.25255424      -4.40631239
H        5.57994999       1.78019819      -4.08049250
H        8.51067668       4.70360562      -7.17721357
H        9.49838195       3.50223266      -6.34955534
H        8.69002546       6.19180888      -5.43211205
H       10.63678873       3.19519448      -4.43348463
H       11.34965501       2.84404698      -2.12096785
H       10.98974338       4.60046984      -0.41226058
H        9.14931082       7.09845443      -3.39103328
C       -1.79171818      -1.79171818      -1.79171818
C       -1.38547367      -2.09410997      -3.08963820
C       -2.19127476      -2.90119256      -3.89426098
C       -3.40288990      -3.40360986      -3.40270466
C       -3.80170878      -3.09737831      -2.09808963
C       -2.99518468      -2.28911353      -1.29201073
C       -4.21485757      -4.27130559      -4.25439114
C       -4.03998343      -5.59289781      -4.31970721
N       -3.17348616      -6.35659196      -3.59450928
C       -3.25274609      -7.67942738      -4.00624700
S       -2.36499007      -8.87935045      -3.28430499
N       -4.16866135      -7.74657477      -5.04040611
C       -4.53440548      -8.90092787      -5.82646515
N       -4.21555411      -8.66181338      -7.23218536
C       -2.88145452      -8.48098112      -7.61989709
C       -1.82101514      -9.21252215      -7.07288692
C       -0.50358660      -9.01258135      -7.49963615
C       -0.22949128      -8.10301451      -8.51628142
C       -1.28059941      -7.41457408      -9.11247736
Br      -0.92541569      -6.20152034     -10.51950668
C       -2.59500662      -7.61057929      -8.68154035
C       -4.74778332      -6.51427078      -5.25898040
O       -5.62155516      -6.20772275      -6.04965993
H       -0.44820476      -1.70966989      -3.48370131
H       -1.86633607      -3.13570251      -4.90633342
H       -4.73786069      -3.48253400      -1.70020443
H       -3.31296871      -2.05327545      -0.27958140
H       -4.93790344      -3.77649603      -4.89806363
H       -2.55498721      -6.01603811      -2.86961536
H       -5.62030610      -9.02663933      -5.74455044
H       -4.07415621      -9.82028774      -5.45572600
H       -4.81207731      -7.91344688      -7.58842219
H       -1.99644440      -9.96207514      -6.30694829
H        0.30411315      -9.57772069      -7.04106230
H        0.79508090      -7.95287069      -8.84468401
H       -3.40177032      -7.06864110      -9.16838710
C       -1.79171818       1.79171818       1.79171818
C       -2.65955567       2.70806509       1.20160107
C       -3.46604622       3.51248139       2.00820069
C       -3.40345794       3.40253454       3.40321195
C       -2.53165057       2.47845766       3.98706849
C       -1.72375210       1.67279037       3.17976648
C       -4.27988164       4.23491717       4.22575549
C       -5.52264747       3.87566615       4.55427483
N       -6.15485678       2.70162259       4.26810802
C       -7.46254769       2.74545917       4.73041360
S       -8.48834915       1.45042840       4.58986795
N       -7.67085041       3.99154022       5.29325161
C       -8.89499110       4.52051922       5.84628818
N       -9.30044084       5.70931947       5.09979254
C       -9.64127388       5.59540787       3.74565098
C      -10.36400367       4.51435877       3.22806178
C      -10.69826630       4.44644522       1.87109257
C      -10.35002205       5.48529727       1.01346790
C       -9.68661953       6.59496969       1.52606163
Br      -9.23882075       8.02973617       0.37788579
C       -9.34808299       6.65907058       2.87997269
C       -6.50750717       4.73196307       5.28156426
O       -6.30344113       5.84544282       5.73005388
H       -2.71694246       2.80424010       0.12039340
H       -4.14378404       4.22426359       1.54032438
H       -2.47374614       2.37828105       5.06857192
H       -1.04660117       0.95833277       3.64089163
H       -3.89322409       5.21093324       4.50830577
H       -5.74243049       1.91501225       3.78319793
H       -8.68708681       4.82608440       6.87832465
H       -9.69168069       3.77334114       5.88514812
H       -8.61365934       6.44989150       5.25039555
H      -10.69161016       3.70284478       3.87101289
H      -11.23989852       3.58376175       1.49100956
H      -10.61340406       5.42797218      -0.03890244
H       -8.83798242       7.54030325       3.26051286
C        1.79171818      -1.79171818       1.79171818
C        1.29843058      -2.26515527       3.00563598
C        2.10447701      -3.07210191       3.81014938
C        3.40298266      -3.40358332       3.40263844
C        3.88915035      -2.92634704       2.18167934
C        3.08240223      -2.11814616       1.37576056
C        4.21702003      -4.27487422       4.24866005
C        4.17584820      -5.60663514       4.17010511
N        3.46637908      -6.36882732       3.28938100
C        3.64418462      -7.71400130       3.58023455
S        2.95895544      -8.91041860       2.65927147
N        4.46020870      -7.80197875       4.69345478
C        4.86864169      -8.99239198       5.40076483
N        4.39508588      -8.93273259       6.78173438
C        3.01874741      -8.92035232       7.04323300
C        2.09706563      -9.68767135       6.32168724
C        0.73154405      -9.65887737       6.62538267
C        0.26900500      -8.89056023       7.68922199
C        1.18130355      -8.17193466       8.45441265
Br       0.56985886      -7.15162825       9.92495561
C        2.54381851      -8.19668024       8.14662750
C        4.88408744      -6.55006991       5.08687715
O        5.64234855      -6.24661757       5.98997172
H        0.29308074      -2.01434740       3.33414782
H        1.71161240      -3.44077157       4.75598803
H        4.89383047      -3.17756950       1.84919915
H        3.46807852      -1.74880072       0.42894632
H        4.82028041      -3.78392368       5.00825902
H        2.88698917      -6.01437906       2.53927245
H        5.96458761      -9.00562762       5.42128063
H        4.54412598      -9.90733790       4.89870608
H        4.87375855      -8.17267449       7.26751335
H        2.42149741     -10.33310311       5.51086731
H        0.03432656     -10.24680518       6.03353810
H       -0.79208085      -8.87310090       7.92145375
H        3.23986139      -7.63476558       8.76417156
C       -0.00445707       0.01189536      -1.78238275
H       -0.66409135       0.67374010      -2.43557963
H        0.65740317      -0.63156657      -2.45157240
C       -0.90989263      -0.90692880      -0.91072765
C        0.90977584       0.90977584      -0.90977584
C       -0.00465871       1.77757030       0.00794375
H       -0.66225468       2.44313916      -0.64384735
H        0.64322798       2.43503045       0.67728295
C       -1.78241447       0.00034974      -0.00472694
H       -2.45427497      -0.65498947       0.64260836
H       -2.43311707       0.67328779      -0.65473579
C       -0.91132561       0.90220522       0.91563759
C       -0.01476271      -0.02253852       1.78660255
H       -0.67934791      -0.69751639       2.42135241
H        0.63392994       0.61504881       2.47327442
C        0.01484550      -1.77751727      -0.01636693
H        0.67870853      -2.42144646      -0.68295456
H       -0.62264859      -2.45592969       0.64226336
C        1.78714474       0.01002794       0.00389507
H        2.44202412       0.67113390       0.66197326
H        2.45385902      -0.65136977      -0.64189061
C        0.91606151      -0.90478549       0.90901405
