145
Properties=species:S:1:pos:R:3 pbc="F F F"
C        0.00000000       0.00000000       0.00000000
C        0.88181416       0.88181416      -0.88181416
C        1.86229444       1.68031586      -0.29689946
C        2.66860961       2.48475350      -1.10365311
C        2.49349781       2.49261626      -2.49337828
C        1.50891532       1.68622264      -3.07232669
C        0.70115225       0.88058995      -2.26485467
C        3.37038886       3.32092109      -3.31953228
C        4.55217035       2.89764803      -3.77305800
N        5.10723619       1.66048503      -3.62715410
C        6.37607255       1.64380592      -4.18882993
S        7.30173433       0.26877538      -4.22842372
N        6.64160850       2.91219416      -4.67212750
C        7.85974951       3.39126898      -5.28106793
N        8.41426910       4.48245134      -4.48312034
C        8.84484516       4.23462865      -3.17314684
C        9.51464087       3.06448758      -2.79758370
C        9.94260587       2.86264669      -1.48083946
C        9.74418886       3.85203700      -0.52284927
C        9.13604192       5.04580094      -0.89609593
Br       8.89226316       6.41270862       0.38824114
C        8.70374952       5.24392441      -2.20974026
C        5.54587343       3.73395538      -4.51149362
O        5.39937186       4.89207856      -4.85777534
H        2.00772293       1.68445380       0.78031284
H        3.43453016       3.10396134      -0.64016842
H        1.36262762       1.67816977      -4.15008966
H       -0.06389718       0.25813479      -2.72187588
H        3.04369245       4.34265022      -3.49640836
H        4.67004596       0.87029417      -3.17058848
H        7.60077265       3.79370159      -6.26730954
H        8.58847793       2.59232864      -5.43965132
H        7.78012143       5.28190485      -4.52220803
H        9.72688471       2.28529046      -3.52358060
H       10.43975098       1.93414296      -1.21106382
H       10.07983936       3.69056582       0.49764345
H        8.23940679       6.18855040      -2.48112926
C       -0.88181416      -0.88181416      -0.88181416
C       -1.65627222      -0.30002212      -1.88321542
C       -2.46071705      -1.10680412      -2.68949506
C       -2.49261463      -2.49339166      -2.49348605
C       -1.71023685      -3.06927528      -1.48795252
C       -0.90460814      -2.26177091      -0.68021782
C       -3.32015012      -3.32029374      -3.37039837
C       -2.88604601      -3.79831129      -4.53851908
N       -1.63851545      -3.67972916      -5.07663071
C       -1.61125536      -4.26104980      -6.33640324
S       -0.22312781      -4.33571347      -7.24009215
N       -2.88276033      -4.72910000      -6.61406984
C       -3.35263400      -5.34938184      -7.83007059
N       -4.42288135      -4.54361741      -8.41334202
C       -4.14843577      -3.24432986      -8.85985503
C       -2.96263930      -2.89689175      -9.51718110
C       -2.73410017      -1.59009808      -9.96189377
C       -3.71152624      -0.61428575      -9.79326314
C       -4.91997024      -0.95999851      -9.19797003
Br      -6.27049166       0.34850320      -8.99474219
C       -5.14481069      -2.26368275      -8.74892075
C       -3.71846237      -4.53919151      -5.53366854
O       -4.88386355      -4.86558885      -5.39977337
H       -1.64163085       0.77476402      -2.04499706
H       -3.06104276      -0.64582934      -3.47178783
H       -1.72098569      -4.14465806      -1.32524329
H       -0.30092321      -2.71634633       0.10115605
H       -4.34931303      -3.47661920      -3.05681880
H       -0.84810879      -3.22851721      -4.63430260
H       -3.77407201      -6.32531047      -7.56240130
H       -2.54527734      -5.53124752      -8.54393302
H       -5.23235932      -4.56082421      -7.79105078
H       -2.19157829      -3.63779251      -9.70638496
H       -1.79412864      -1.34210468     -10.44872445
H       -3.52930458       0.39835763     -10.14181477
H       -6.10042849      -2.51354954      -8.29510842
C       -0.88181416       0.88181416       0.88181416
C       -1.85884050       0.29645499       1.68421427
C       -2.66325602       1.10296419       2.49079602
C       -2.49264244       2.49326821       2.49358170
C       -1.50798844       3.07220742       1.68726880
C       -0.70229224       2.26500137       0.87930326
C       -3.32735078       3.31399399       3.36949745
C       -3.00911517       3.57449214       4.63926907
N       -1.87663008       3.21142814       5.30681710
C       -1.95799775       3.62029625       6.63041440
S       -0.71579546       3.38092154       7.70221644
N       -3.18741693       4.22762977       6.81088346
C       -3.74563011       4.75164832       8.03480799
N       -4.98102069       4.04131765       8.35750244
C       -4.93858155       2.67047486       8.64356425
C       -3.91250498       2.07668081       9.38752635
C       -3.91581241       0.70529011       9.66498951
C       -4.97337615      -0.09107598       9.23677497
C       -6.03081276       0.49650392       8.55062210
Br      -7.49135180      -0.56851542       7.99389426
C       -6.02364118       1.86485432       8.26891869
C       -3.87638112       4.29665738       5.61828393
O       -4.96026940       4.80127007       5.38768630
H       -2.00240167      -0.78099760       1.69045982
H       -3.42272557       0.63864937       3.11728499
H       -1.36039809       4.14980275       1.68068619
H        0.05954094       2.72243646       0.25321798
H       -4.27299937       3.65459998       2.95515168
H       -1.09372046       2.71037411       4.90683403
H       -3.99858200       5.80376676       7.85943503
H       -3.03284237       4.72473225       8.86288326
H       -5.68409816       4.25248425       7.64765191
H       -3.08991633       2.66951176       9.77632768
H       -3.09409657       0.26579872      10.22506248
H       -4.97147409      -1.15500617       9.45629381
H       -6.86522498       2.30429462       7.73956686
C        0.88181416      -0.88181416       0.88181416
C        1.40840043      -2.06438127       0.36672806
C        2.21529762      -2.86886851       1.17285009
C        2.49366780      -2.49271631       2.49310824
C        1.96328160      -1.30300583       3.00117722
C        1.15510841      -0.49713086       2.19435760
C        3.36591632      -3.33694852       3.30797739
C        4.69515563      -3.21626746       3.31145329
N        5.45048848      -2.29051567       2.65387117
C        6.79810728      -2.54540943       2.86519167
S        7.98522302      -1.56689090       2.24681952
N        6.89621012      -3.68069839       3.64902164
C        8.09533129      -4.36370288       4.07305226
N        8.09402716      -5.73015552       3.55565809
C        8.13221134      -5.94817204       2.17223728
C        8.90422643      -5.17456243       1.29792329
C        8.92701765      -5.43558145      -0.07650708
C        8.20735976      -6.50732454      -0.59560915
C        7.48566169      -7.32274388       0.26953322
Br       6.53171874      -8.80381515      -0.41880325
C        7.45878878      -7.05766819       1.64095722
C        5.64496844      -4.12561358       4.02074040
O        5.34713903      -5.06117213       4.74091461
H        1.19911945      -2.36842214      -0.65567770
H        2.62564076      -3.79001675       0.76300242
H        2.17287160      -0.99496653       4.02304892
H        0.74427999       0.42519900       2.59703251
H        2.88098489      -4.12999825       3.87176789
H        5.09041213      -1.53366548       2.08685100
H        8.07554775      -4.41851594       5.16772010
H        9.00344480      -3.82375339       3.79325970
H        7.33540068      -6.25396878       3.99486486
H        9.51337648      -4.35499033       1.66738895
H        9.51703240      -4.80416765      -0.73624228
H        8.22986118      -6.70624708      -1.66334653
H        6.89561217      -7.71392037       2.29955392
