149
Properties=species:S:1:pos:R:3 pbc="F F F"
C        0.00000000       0.00000000       0.00000000
C        0.88138105       0.88138105      -0.88138105
C        1.48932765       2.01453310      -0.34525761
C        2.28232041       2.83507724      -1.15916963
C        2.50798724       2.50910849      -2.50025981
C        1.87323209       1.37111668      -3.01842042
C        1.06103087       0.55941960      -2.22145116
N        3.26156539       3.26425885      -3.40889817
C        4.29498110       3.96588515      -3.12143691
N        4.93591401       4.18401737      -1.94373685
S        5.12908757       4.70619910      -4.47320776
C        3.92426781       5.99514664      -4.93893475
H        3.68071612       6.61356840      -4.06955048
C        2.67818561       5.50152948      -5.63247398
C        3.00629057       5.60808535      -7.08938019
O        2.29651780       5.07716610      -7.93365461
N        4.11329413       6.41440723      -7.24869676
C        4.68969922       6.78012251      -8.51138452
C        4.11074307       6.39128511      -9.73370543
C        4.69308749       6.71331293     -10.96864409
C        5.87533832       7.43712460     -11.00764449
Br       6.66834304       7.86467188     -12.66699474
C        6.47590924       7.83991140      -9.82305131
C        5.88840189       7.51147637      -8.59130433
C        4.57232558       6.83862435      -6.01434803
O        5.36817556       7.73236247      -5.75044792
H        1.34020692       2.27842935       0.69853011
H        2.69889125       3.73975280      -0.72791272
H        2.00580813       1.12253357      -4.06982931
H        0.57443788      -0.30766100      -2.65998287
H        4.88921926       3.40300408      -1.30139502
H        5.88157643       4.53125674      -2.06277504
H        1.83455043       6.17249897      -5.43214361
H        2.38194723       4.48167238      -5.38658804
H        3.18723045       5.82223097      -9.78191914
H        4.20997701       6.38529863     -11.88590874
H        7.40562759       8.40335654      -9.83626663
H        6.42332701       7.83774456      -7.70422836
C       -0.88138105      -0.88138105      -0.88138105
C       -1.31319930      -0.41481589      -2.12110317
C       -2.13895272      -1.21578976      -2.92182480
C       -2.50486867      -2.50149143      -2.51099544
C       -2.06829867      -2.94138287      -1.25308765
C       -1.26440265      -2.14113365      -0.43636533
N       -3.34016285      -3.37785772      -3.21670185
C       -3.42433878      -3.46527925      -4.49268514
N       -2.78537013      -2.79305007      -5.48524803
S       -4.45250848      -4.74040880      -5.11557715
C       -6.09728107      -4.08074772      -4.68032042
H       -6.21428208      -3.06897054      -5.08058238
C       -6.45598760      -4.14050853      -3.21569293
C       -7.19372172      -5.43564011      -3.07439428
O       -7.43259586      -5.90526588      -1.96947677
N       -7.56987894      -5.88358945      -4.32292973
C       -8.33490896      -7.07178367      -4.57451362
C       -8.84185223      -7.86525086      -3.52863052
C       -9.55588336      -9.04818256      -3.77097860
C       -9.78037701      -9.46542952      -5.07430087
Br     -10.73239824     -11.06197946      -5.40563196
C       -9.29731567      -8.70879468      -6.13276160
C       -8.58146783      -7.52773314      -5.88198161
C       -7.12247829      -5.00721750      -5.29560217
O       -7.44621454      -4.92976903      -6.47500238
H       -1.02817767       0.57530056      -2.46722904
H       -2.50362822      -0.80502785      -3.85790070
H       -2.37464490      -3.92416479      -0.89936132
H       -0.95537882      -2.50953805       0.53815713
H       -1.84574826      -2.50335149      -5.24451860
H       -2.82628826      -3.26939846      -6.37992149
H       -7.15038321      -3.33276444      -2.95604537
H       -5.61056024      -4.11151352      -2.52813388
H       -8.70441644      -7.60301964      -2.48394447
H       -9.92278566      -9.62975209      -2.92864664
H       -9.46022105      -9.02484707      -7.16018265
H       -8.21257383      -6.99760201      -6.75512408
C       -0.88138105       0.88138105       0.88138105
C       -2.24610070       0.98295043       0.62006723
C       -3.05207575       1.80780195       1.41668959
C       -2.51134743       2.50309127       2.50291684
C       -1.13275725       2.39446125       2.73555069
C       -0.31589186       1.59356174       1.93244802
N       -3.21487507       3.36955469       3.35029265
C       -4.44481298       3.24769235       3.68979783
N       -5.38088168       2.31868769       3.36409886
S       -5.04033497       4.39842062       4.86973884
C       -5.08417329       5.91632606       3.85784986
H       -5.66941766       5.74532459       2.94909276
C       -3.74098255       6.52803702       3.54316949
C       -3.53654659       7.53619903       4.63101049
O       -2.44288654       8.05699184       4.80746013
N       -4.73933714       7.77623026       5.26083072
C       -4.93711545       8.71986916       6.32422163
C       -3.90079312       9.55679166       6.77814883
C       -4.07980862      10.45186627       7.84336962
C       -5.30852600      10.53002158       8.48155983
Br      -5.55174740      11.72609836       9.92216390
C       -6.35561103       9.72168234       8.06157857
C       -6.16777657       8.82671867       6.99668735
C       -5.73222325       6.99173274       4.70134197
O       -6.94855668       7.08215192       4.82027735
H       -2.69044268       0.43924251      -0.20957904
H       -4.10084915       1.90926886       1.15643877
H       -0.68688974       2.95844619       3.55283508
H        0.75073687       1.54332785       2.13416877
H       -5.00074821       1.39537460       3.19749555
H       -6.16744605       2.30366232       4.00449985
H       -3.77829754       7.07003699       2.59085849
H       -2.90578447       5.82799811       3.51642507
H       -2.91237647       9.55031415       6.32868994
H       -3.24638900      11.07394383       8.16085156
H       -7.32347583       9.76704166       8.55473327
H       -7.02148717       8.20826645       6.73554630
C        0.88138105      -0.88138105       0.88138105
C        0.37298147      -1.41037631       2.06576057
C        1.18816961      -2.20311147       2.88528620
C        2.50033064      -2.50756506       2.50945984
C        2.99180218      -1.95117986       1.31978715
C        2.19482357      -1.13968653       0.50739152
N        3.40870297      -3.26851251       3.25750693
C        3.10822806      -4.25373161       4.02034349
N        1.91424289      -4.82674795       4.32267740
S        4.45435786      -5.11697512       4.73716145
C        5.03608102      -3.87814102       5.94412717
H        4.20944073      -3.56508826       6.58930601
C        5.76145938      -2.69068709       5.36004260
C        7.20524772      -3.08310699       5.41540140
O        8.05468297      -2.43972314       4.81293240
N        7.35222165      -4.15839884       6.26577763
C        8.60328717      -4.77738534       6.60053374
C        9.83076508      -4.27616678       6.12880175
C       11.05177412      -4.90174820       6.42152219
C       11.07129183      -6.05012562       7.19868996
Br      12.71119606      -6.90143932       7.58737428
C        9.88113830      -6.57408318       7.68365047
C        8.66324283      -5.94379674       7.38414302
C        6.11993131      -4.53775964       6.76760701
O        5.86306258      -5.27827054       7.70965283
H       -0.64901550      -1.19940983       2.36971183
H        0.78220374      -2.55664628       3.82770676
H        4.02289594      -2.14530268       1.02997238
H        2.61305853      -0.71491151      -0.40121029
H        1.23797310      -4.78509088       3.57055438
H        2.00638334      -5.76014124       4.70908363
H        5.63239768      -1.80857396       5.99822137
H        5.48073636      -2.42999777       4.33947352
H        9.89384922      -3.38305720       5.51447414
H       11.97339791      -4.47873976       6.02904671
H        9.87879460      -7.47658961       8.28986656
H        7.76928498      -6.42003441       7.77598053
