157
Properties=species:S:1:pos:R:3 pbc="F F F"
C        0.00000000       0.00000000       0.00000000
C        0.88138105       0.88138105      -0.88138105
C        1.48932765       2.01453310      -0.34525761
C        2.28232041       2.83507724      -1.15916963
C        2.50798724       2.50910849      -2.50025981
C        1.87323209       1.37111668      -3.01842042
C        1.06103087       0.55941960      -2.22145116
N        3.26156539       3.26425885      -3.40889817
C        4.29498110       3.96588515      -3.12143691
N        4.93591401       4.18401737      -1.94373685
S        5.12908757       4.70619910      -4.47320776
C        3.92426781       5.99514664      -4.93893475
H        3.68071612       6.61356840      -4.06955048
C        2.67818561       5.50152948      -5.63247398
C        3.00629057       5.60808535      -7.08938019
O        2.29651780       5.07716610      -7.93365461
N        4.11329413       6.41440723      -7.24869676
C        4.68969922       6.78012251      -8.51138452
C        4.11074307       6.39128511      -9.73370543
C        4.69308749       6.71331293     -10.96864409
C        5.87533832       7.43712460     -11.00764449
C        6.47590924       7.83991140      -9.82305131
C        5.88840189       7.51147637      -8.59130433
C        4.57232558       6.83862435      -6.01434803
O        5.36817556       7.73236247      -5.75044792
H        1.34020692       2.27842935       0.69853011
H        2.69889125       3.73975280      -0.72791272
H        2.00580813       1.12253357      -4.06982931
H        0.57443788      -0.30766100      -2.65998287
H        4.88921926       3.40300408      -1.30139502
H        5.88157643       4.53125674      -2.06277504
H        1.83455043       6.17249897      -5.43214361
H        2.38194723       4.48167238      -5.38658804
H        3.18723045       5.82223097      -9.78191914
H        4.20997701       6.38529863     -11.88590874
H        7.40562759       8.40335654      -9.83626663
H        6.42332701       7.83774456      -7.70422836
C        6.48012556       7.76319472     -12.27315255
C        6.98663488       8.03627845     -13.33301556
Br       7.80561762       8.47783174     -15.04672439
C       -0.88138105      -0.88138105      -0.88138105
C       -1.83667529      -0.30006872      -1.71237435
C       -2.65976245      -1.11006555      -2.50673928
C       -2.50795348      -2.50026421      -2.50913785
C       -1.54869786      -3.06064135      -1.65342998
C       -0.73922567      -2.26331706      -0.83935890
N       -3.28582105      -3.40574258      -3.24315878
C       -3.80000797      -3.18583144      -4.39646376
N       -3.75941735      -2.09679555      -5.20745534
S       -4.61805292      -4.53969184      -5.15074967
C       -6.10447450      -4.65529638      -4.09857833
H       -6.61463623      -3.68785624      -4.06134254
C       -5.88103740      -5.21579253      -2.71535914
C       -6.15741583      -6.67942821      -2.86691207
O       -5.85106066      -7.47121920      -1.98505865
N       -6.83045132      -6.89520272      -4.05074407
C       -7.30086478      -8.17167969      -4.50866179
C       -7.17264489      -9.33536115      -3.72772757
C       -7.59537595     -10.59106504      -4.18860353
C       -8.16022304     -10.71038782      -5.44949655
C       -8.30490239      -9.58510476      -6.24886480
C       -7.87701348      -8.33259190      -5.78157721
C       -7.00691532      -5.69761518      -4.72076747
O       -7.74332071      -5.44144864      -5.66621660
H       -1.96144211       0.77935095      -1.73801500
H       -3.43074680      -0.63270050      -3.10310947
H       -1.44218128      -4.14315548      -1.61283425
H       -0.01512180      -2.73274822      -0.17888972
H       -2.90503766      -1.55953112      -5.12904958
H       -3.99681257      -2.30797719      -6.17081846
H       -6.61747279      -4.80989970      -2.01182053
H       -4.88237732      -5.06128955      -2.30654076
H       -6.73937736      -9.31979544      -2.73220776
H       -7.46983557     -11.46181088      -3.54953794
H       -8.74088762      -9.66255329      -7.24180986
H       -7.99865745      -7.49928257      -6.46735990
C       -8.58853974     -11.99885417      -5.92907893
C       -8.94725499     -13.07794474      -6.33072916
Br      -9.52726719     -14.82274293      -6.98016363
C       -0.88138105       0.88138105       0.88138105
C       -0.87041250       0.71421389       2.26449197
C       -1.69448595       1.50959766       3.07248367
C       -2.50251633       2.50352121       2.51131800
C       -2.50530765       2.64161877       1.11584277
C       -1.70533428       1.83736008       0.29920727
N       -3.37867942       3.33908253       3.21696046
C       -3.19849217       3.77509110       4.40871990
N       -2.18658705       3.58270376       5.29437742
S       -4.38916182       4.91430256       5.00503005
C       -5.82252382       3.80732007       5.22850532
H       -5.54609971       2.95753215       5.86020315
C       -6.49963567       3.35437818       3.95817521
C       -7.59619219       4.35318440       3.75437952
O       -8.20174892       4.41334636       2.69224323
N       -7.79915763       5.05142870       4.92581179
C       -8.80233835       6.05970106       5.11916684
C       -9.73882155       6.37861725       4.11829481
C      -10.69509230       7.39064577       4.28930645
C      -10.73583795       8.11013606       5.47413339
C       -9.82954347       7.82383637       6.48549211
C       -8.87400770       6.81148359       6.30569129
C       -6.91007875       4.62073419       5.89448502
O       -6.92591468       4.82182688       7.10324439
H       -0.23852362      -0.04177939       2.72336192
H       -1.70500710       1.32040073       4.14114896
H       -3.15657239       3.38381976       0.65777885
H       -1.74272738       1.96352593      -0.77949357
H       -1.28159940       3.45201939       4.85999957
H       -2.16488759       4.27841912       6.03230150
H       -6.96677319       2.37265182       4.09976800
H       -5.85801545       3.31438605       3.07780614
H       -9.76682770       5.85959840       3.16495446
H      -11.39401530       7.60326023       3.48390886
H       -9.84481808       8.38218258       7.41825011
H       -8.18142853       6.65616450       7.12770689
C      -11.71114442       9.15476507       5.65056335
C      -12.52796358      10.02964187       5.79832345
Br     -13.84869108      11.44424365       6.03723902
C        0.88138105      -0.88138105       0.88138105
C        0.36323643      -2.04954834       1.43633358
C        1.16608458      -2.84854466       2.26193805
C        2.50108224      -2.51071023       2.50556307
C        2.99360427      -1.32278520       1.94637972
C        2.19422964      -0.50640345       1.14126854
N        3.38626262      -3.22017426       3.32828553
C        3.39062209      -4.49014547       3.50153561
N        2.60488249      -5.47165302       2.98713273
S        4.69269517      -5.13366893       4.48213033
C        4.19006531      -4.53666165       6.13162225
H        3.16447499      -4.85085928       6.34850074
C        4.37844491      -3.05920449       6.37453966
C        5.73190189      -2.96428444       7.00756978
O        6.29395184      -1.88370976       7.12967692
N        6.11868719      -4.21362043       7.44409050
C        7.34043728      -4.49960622       8.14116274
C        8.24060145      -3.48334201       8.51179015
C        9.45393893      -3.76329976       9.15780583
C        9.79500153      -5.07540245       9.44970343
C        8.93238943      -6.10527396       9.10120855
C        7.72136370      -5.81719529       8.45262360
C        5.14561614      -5.14669738       7.13298445
O        5.01065072      -6.29154642       7.54878881
H       -0.66715759      -2.33952992       1.24773382
H        0.71957746      -3.72351920       2.72346012
H        4.01882968      -1.02320759       2.15613374
H        2.60545042       0.41386745       0.73517677
H        2.26307399      -5.27595317       2.05459120
H        3.01945591      -6.39447161       3.06168069
H        3.64506253      -2.69201125       7.10211923
H        4.33416456      -2.43199089       5.48405219
H        8.04224235      -2.43406700       8.31507122
H       10.11864111      -2.94339922       9.41914406
H        9.18739864      -7.13963263       9.31821950
H        7.10553383      -6.67173761       8.18802848
C       11.04301928      -5.36740875      10.10604481
C       12.08823415      -5.61196402      10.65573072
Br      13.77825819      -6.00738922      11.54452634
