178
Properties=species:S:1:pos:R:3 pbc="F F F"
C        1.79128507       1.79128507      -1.79128507
C        2.39923168       2.92443712      -1.25516163
C        3.19222443       3.74498126      -2.06907366
C        3.41789126       3.41901251      -3.41016384
C        2.78313611       2.28102071      -3.92832444
C        1.97093489       1.46932362      -3.13135519
N        4.17146942       4.17416288      -4.31880219
C        5.20488513       4.87578917      -4.03134094
N        5.84581804       5.09392139      -2.85364087
S        6.03899159       5.61610312      -5.38311179
C        4.83417184       6.90505066      -5.84883878
H        4.59062015       7.52347243      -4.97945450
C        3.58808964       6.41143350      -6.54237800
C        3.91619460       6.51798937      -7.99928422
O        3.20642183       5.98707012      -8.84355863
N        5.02319815       7.32431126      -8.15860078
C        5.59960324       7.69002653      -9.42128855
C        5.02064709       7.30118914     -10.64360945
C        5.60299151       7.62321696     -11.87854812
C        6.78524234       8.34702862     -11.91754851
C        7.38581326       8.74981543     -10.73295533
C        6.79830592       8.42138040      -9.50120835
C        5.48222961       7.74852838      -6.92425205
O        6.27807958       8.64226649      -6.66035195
H        2.25011094       3.18833337      -0.21137391
H        3.60879528       4.64965683      -1.63781675
H        2.91571216       2.03243759      -4.97973333
H        1.48434190       0.60224302      -3.56988689
H        5.79912328       4.31290811      -2.21129904
H        6.79148046       5.44116077      -2.97267906
H        2.74445446       7.08240300      -6.34204763
H        3.29185125       5.39157640      -6.29649206
H        4.09713447       6.73213500     -10.69182316
H        5.11988104       7.29520266     -12.79581276
H        8.31553162       9.31326057     -10.74617065
H        7.33323103       8.74764858      -8.61413238
C        7.39002959       8.67309874     -13.18305658
C        7.89653891       8.94618247     -14.24291958
Br       8.71552164       9.38773576     -15.95662842
C       -1.79128507      -1.79128507      -1.79128507
C       -2.74508964      -1.20984335      -2.62389744
C       -3.56819326      -2.01980991      -3.41827619
C       -3.41784815      -3.41016949      -3.41904998
C       -2.46008617      -3.97065415      -2.56174094
C       -1.65063163      -3.17332500      -1.74765707
N       -4.19589650      -4.31560148      -4.15293651
C       -4.70863582      -4.09636522      -5.30701420
N       -4.66604222      -3.00822865      -6.11910945
S       -5.52731307      -5.45015778      -6.06073566
C       -7.01496346      -5.56308643      -5.01001140
H       -7.52414351      -4.59507059      -4.97433297
C       -6.79357508      -6.12235850      -3.62596756
C       -7.07133720      -7.58586121      -3.77626977
O       -6.76674656      -8.37704402      -2.89326001
N       -7.74335226      -7.80217496      -4.96058296
C       -8.21462903      -9.07863785      -5.41765145
C       -8.08845937     -10.24162947      -4.63535685
C       -8.51202877     -11.49737266      -5.09535516
C       -9.07567263     -11.61743005      -6.35671680
C       -9.21832281     -10.49283889      -7.15742232
C       -8.78960569      -9.24028539      -6.69100358
C       -7.91784707      -6.60510949      -5.63205348
O       -8.65298537      -6.34916453      -6.57854813
H       -2.86869086      -0.13032047      -2.65080690
H       -4.33804496      -1.54226208      -4.01596181
H       -2.35475419      -5.05323648      -2.51989241
H       -0.92771952      -3.64282195      -1.08593035
H       -3.81117944      -2.47178227      -6.04036872
H       -4.90264493      -3.22017598      -7.08249938
H       -7.53032278      -5.71494822      -2.92363408
H       -5.79518388      -5.96847668      -3.21625915
H       -7.65622475     -10.22547029      -3.63939758
H       -8.38808019     -12.36757579      -4.45524048
H       -9.65334310     -10.57087524      -8.15074451
H       -8.90964812      -8.40757212      -7.37779175
C       -9.50484251     -12.90594951      -6.83539289
C       -9.86427228     -13.98508457      -7.23628411
Br     -10.44543983     -15.72995468      -7.88449131
C       -1.79128507       1.79128507       1.79128507
C       -1.80208446       1.60481814       3.17192784
C       -2.62632959       2.40043049       3.97951927
C       -3.41253018       3.41330299       3.42123444
C       -3.39378439       3.57076246       2.02793441
C       -2.59363615       2.76673564       1.21124190
N       -4.28685857       4.25123667       4.12633926
C       -4.11741806       4.66810172       5.32649545
N       -3.12083110       4.44924306       6.22330615
S       -5.30044397       5.81556458       5.92219796
C       -6.75201809       4.72585370       6.11018949
H       -6.49631328       3.86358562       6.73364818
C       -7.41741631       4.30013532       4.82434951
C       -8.49704403       5.31699122       4.61943293
O       -9.08671383       5.40038368       3.54995308
N       -8.70675953       6.00171022       5.79764043
C       -9.69848273       7.02121060       5.99122500
C      -10.61628801       7.36711048       4.98204719
C      -11.56074414       8.39001649       5.15399596
C      -11.60816523       9.09351065       6.34814360
C      -10.72023796       8.78049997       7.36784608
C       -9.77639760       7.75740197       7.18709509
C       -7.83744650       5.54516683       6.77239671
O       -7.86748731       5.72968237       7.98352834
H       -1.18725352       0.83372465       3.62884006
H       -2.65449854       2.19660033       5.04516998
H       -4.02818998       4.32832762       1.57136547
H       -2.61410498       2.90835989       0.13400694
H       -2.21172422       4.31188225       5.79972397
H       -3.09986503       5.13428562       6.97116963
H       -7.90006624       3.32320548       4.94563337
H       -6.76409691       4.26333635       3.95248645
H      -10.63808051       6.86180561       4.02120651
H      -12.24525807       8.62358462       4.34205376
H      -10.74088306       9.32601850       8.30806128
H       -9.09766545       7.58097682       8.01636973
C      -12.57127750      10.14920332       6.52570409
C      -13.37788403      11.03334594       6.67441100
Br     -14.68209856      12.46292977       6.91485749
C        1.79128507      -1.79128507       1.79128507
C        1.28150981      -2.97347224       2.32384838
C        2.08400698      -3.77277282       3.14949955
C        3.41105572      -3.42067234       3.41533955
C        3.89500501      -2.21901179       2.87846446
C        3.09547901      -1.40255650       2.07357819
N        4.29471416      -4.12933400       4.24038633
C        4.31373456      -5.40133603       4.39694465
N        3.54799945      -6.38615301       3.85922784
S        5.61125433      -6.04068636       5.38626582
C        5.07903216      -5.47240695       7.03662217
H        4.05495843      -5.80294489       7.23564376
C        5.24446996      -3.99597001       7.30146117
C        6.58808886      -3.89169323       7.95368610
O        7.13401664      -2.80553786       8.09749608
N        6.98572660      -5.14154121       8.37884238
C        8.20190026      -5.42069170       9.08832636
C        9.08346899      -4.39769964       9.48427705
C       10.29182326      -4.67025275      10.14268058
C       10.64648769      -5.98152896      10.42180283
C        9.80235459      -7.01792682      10.04830261
C        8.59623715      -6.73718949       9.38746802
C        6.02937038      -6.08311453       8.04252512
O        5.90422784      -7.23508653       8.44138365
H        0.25764838      -3.27445218       2.11771766
H        1.64317521      -4.65962916       3.59346448
H        4.91329221      -1.90878777       3.10580310
H        3.49969659      -0.47161580       1.68515942
H        3.21591733      -6.18254658       2.92486653
H        3.97382985      -7.30434607       3.92714436
H        4.49673895      -3.64820301       8.02396313
H        5.20355328      -3.35756962       6.41879682
H        8.87373629      -3.34859598       9.29876036
H       10.94202986      -3.84523176      10.42363484
H       10.06826129      -8.05164165      10.25505990
H        7.99539930      -7.59615931       9.10345338
C       11.88954094      -6.26580969      11.09083428
C       12.93059804      -6.50389480      11.65114812
Br      14.61389931      -6.88885830      12.55712821
C       -0.00445707       0.01189536      -1.78238275
H       -0.66409135       0.67374010      -2.43557963
H        0.65740317      -0.63156657      -2.45157240
C       -0.90989263      -0.90692880      -0.91072765
C        0.90977584       0.90977584      -0.90977584
C       -0.00465871       1.77757030       0.00794375
H       -0.66225468       2.44313916      -0.64384735
H        0.64322798       2.43503045       0.67728295
C       -1.78241447       0.00034974      -0.00472694
H       -2.45427497      -0.65498947       0.64260836
H       -2.43311707       0.67328779      -0.65473579
C       -0.91132561       0.90220522       0.91563759
C       -0.01476271      -0.02253852       1.78660255
H       -0.67934791      -0.69751639       2.42135241
H        0.63392994       0.61504881       2.47327442
C        0.01484550      -1.77751727      -0.01636693
H        0.67870853      -2.42144646      -0.68295456
H       -0.62264859      -2.45592969       0.64226336
C        1.78714474       0.01002794       0.00389507
H        2.44202412       0.67113390       0.66197326
H        2.45385902      -0.65136977      -0.64189061
C        0.91606151      -0.90478549       0.90901405
