153
Properties=species:S:1:pos:R:3 pbc="F F F"
C        0.00000000       0.00000000       0.00000000
O        5.02255924       5.69355367       0.34202374
C        4.14967985       5.28112707       1.11087952
C        3.33421889       4.01515625       0.82443346
N        3.02603194       3.92251689      -0.60973154
C        2.38797544       2.78180297      -1.10044757
C        2.45101519       2.51708731      -2.47567916
C        1.77404255       1.43222078      -3.04304090
C        0.99215090       0.60625916      -2.24187331
C        0.88301571       0.88301571      -0.88301571
C        1.56092637       1.96569355      -0.31792304
N        3.88823891       5.94900604       2.28657013
N        2.91377376       5.54725168       3.14350462
C        2.65455840       6.26635161       4.19708605
C        3.41278959       7.52370261       4.56733127
C        1.53963480       5.81761721       5.08976846
C        0.77584835       6.73040922       5.82743729
C       -0.25995157       6.27571436       6.64971422
C       -0.54010266       4.91189003       6.72602392
C        0.19882940       3.99667766       5.98014618
C        1.23520757       4.44972759       5.15956979
H        2.40229640       4.02303657       1.39719204
H        3.94687875       3.15995250       1.13987549
H        3.81360119       4.23229778      -1.17958727
H        3.03650292       3.16427594      -3.12502715
H        1.85179001       1.24353574      -4.10924487
H        0.46358546      -0.23240276      -2.68400398
H        1.42376558       2.16759886       0.73844974
H        4.41314887       6.80206560       2.44041621
H        4.48723856       7.31873722       4.55674845
H        3.16930856       7.88000462       5.57049536
H        3.18559545       8.31132367       3.84261620
H        0.95246638       7.80006386       5.76221106
H       -0.84677544       6.99209186       7.22004514
H       -0.02218336       2.93314483       6.02685305
H        1.80442629       3.72765004       4.57852162
C       -1.60387961       4.44702822       7.57801106
C       -2.49479281       4.05770644       8.29155029
Br      -3.93532410       3.42820607       9.44528288
O       -2.94333289      -6.99320951      -0.43754677
C       -1.99009619      -6.50784358       0.17801237
C       -1.68141300      -5.00644528       0.16291660
N       -1.93804992      -4.44798701      -1.17224344
C       -1.82961858      -3.07025610      -1.37035130
C       -2.44294799      -2.50413917      -2.49669450
C       -2.31255329      -1.14324682      -2.79350411
C       -1.53503755      -0.32664165      -1.97860418
C       -0.88301571      -0.88301571      -0.88301571
C       -1.01561881      -2.24169536      -0.58722878
N       -1.16659022      -7.31504344       0.93095884
N       -0.08796027      -6.82558847       1.59602792
C        0.70316483      -7.64851363       2.22152484
C        0.47355181      -9.14316284       2.30045010
C        1.90883276      -7.07596513       2.89964883
C        3.09065078      -7.81305594       3.04358488
C        4.19861012      -7.24534783       3.68068914
C        4.13005029      -5.93883252       4.16301877
C        2.96704383      -5.18863230       4.00622759
C        1.85875017      -5.75550045       3.37138491
H       -0.63771228      -4.82802538       0.43759672
H       -2.33806810      -4.53579392       0.90690625
H       -2.76995493      -4.86143211      -1.59409922
H       -3.03542493      -3.12883016      -3.16155093
H       -2.80980655      -0.72949030      -3.66527378
H       -1.43078940       0.72816253      -2.21255981
H       -0.46507014      -2.64369988       0.25585533
H       -1.36642588      -8.30801613       0.89964376
H       -0.54856904      -9.33835227       2.63769399
H        1.14012641      -9.63261645       3.01367221
H        0.62080109      -9.58584309       1.31073909
H        3.18127002      -8.82105959       2.64947040
H        5.11172378      -7.82612375       3.78912868
H        2.91131603      -4.16562165       4.37019721
H        0.95620161      -5.16060540       3.25084907
C        5.27114255      -5.35960346       4.82332337
C        6.22680732      -4.87449913       5.37632847
Br       7.77203642      -4.09012646       6.27049094
O       -1.81801423       7.26561592       1.29045901
C       -0.85463236       6.71161444       0.75368060
C       -0.79820516       5.19610258       0.53063395
N       -1.39106563       4.49116699       1.67604775
C       -1.54381969       3.10448646       1.62191984
C       -2.44345255       2.49363298       2.50669613
C       -2.59111058       1.10330869       2.55488495
C       -1.81268953       0.29390186       1.73369199
C       -0.88301571       0.88301571       0.88301571
C       -0.73804516       2.27145582       0.83504197
N        0.21567673       7.45618942       0.31016214
N        1.30931170       6.88216592      -0.25533340
C        2.32641248       7.62781624      -0.57757980
C        2.35768641       9.13186845      -0.40502111
C        3.53231596       6.95112149      -1.15132199
C        4.82207045       7.46210897      -0.96121824
C        5.92627604       6.80222818      -1.50990356
C        5.74351373       5.62695486      -2.23767768
C        4.46742901       5.09762384      -2.41483394
C        3.36319779       5.75711601      -1.86855285
H        0.23663844       4.86768029       0.39709908
H       -1.36711472       4.98452444      -0.38468339
H       -2.21139778       4.98324308       2.03084539
H       -3.04462031       3.10575634       3.17542936
H       -3.30535156       0.65846717       3.24075190
H       -1.92480150      -0.78494562       1.77533080
H        0.02045456       2.69015131       0.18321794
H        0.17464567       8.45107936       0.49836457
H        1.46336681       9.57008120      -0.85748707
H        3.21769750       9.59235632      -0.89584100
H        2.38180951       9.37448972       0.66162270
H        4.99540903       8.35813762      -0.37240942
H        6.92405521       7.20751150      -1.35818501
H        4.31972643       4.17558100      -2.97174616
H        2.37108552       5.33420835      -2.00956811
C        6.88240362       4.95328700      -2.80574584
C        7.83622390       4.38909017      -3.28150292
Br       9.37847063       3.47683161      -4.05076189
O        4.81739267      -5.86978197      -0.31308547
C        3.93287144      -5.45340463      -1.06634867
C        3.16986840      -4.15158815      -0.79651488
N        2.91401608      -4.00122349       0.64304080
C        2.33105451      -2.82383637       1.11533511
C        2.44967688      -2.51619916       2.47790563
C        1.82861555      -1.39074009       3.02994858
C        1.04752017      -0.56546408       2.22729913
C        0.88301571      -0.88301571       0.88301571
C        1.50516362      -2.00624569       0.33313365
N        3.60957856      -6.15039863      -2.20930237
N        2.62022888      -5.74412141      -3.04682947
C        2.30163535      -6.48832606      -4.06613745
C        3.00489842      -7.78234449      -4.41808198
C        1.17231578      -6.03150893      -4.93634116
C        0.35410796      -6.94155000      -5.61683767
C       -0.69357835      -6.47915591      -6.41952899
C       -0.93102299      -5.10982776      -6.53304131
C       -0.13728163      -4.19625024      -5.84360774
C        0.91097853      -4.65707709      -5.04269025
H        2.21919463      -4.14656017      -1.33761386
H        3.79928984      -3.32865777      -1.16099183
H        3.70992019      -4.31872544       1.19684062
H        3.03530781      -3.16121143       3.12928677
H        1.94887727      -1.16974486       4.08594851
H        0.56230355       0.30487291       2.65775603
H        1.32545480      -2.23809489      -0.71063499
H        4.10050455      -7.02548143      -2.35118772
H        4.08525976      -7.61391913      -4.44995157
H        2.71571082      -8.16303353      -5.39992652
H        2.77670161      -8.53741728      -3.65981598
H        0.49746309      -8.01387325      -5.52101717
H       -1.32283379      -7.19352075      -6.94541569
H       -0.32455158      -3.12791625      -5.91925625
H        1.52320236      -3.93606439      -4.50571203
C       -2.00733304      -4.63730383      -7.36483324
C       -2.90874271      -4.24156503      -8.06145898
Br      -4.36624590      -3.60168888      -9.18784388
