145
Properties=species:S:1:pos:R:3 pbc="F F F"
C        0.00000000       0.00000000       0.00000000
O        5.02255924       5.69355367       0.34202374
C        4.14967985       5.28112707       1.11087952
C        3.33421889       4.01515625       0.82443346
N        3.02603194       3.92251689      -0.60973154
C        2.38797544       2.78180297      -1.10044757
C        2.45101519       2.51708731      -2.47567916
C        1.77404255       1.43222078      -3.04304090
C        0.99215090       0.60625916      -2.24187331
C        0.88301571       0.88301571      -0.88301571
C        1.56092637       1.96569355      -0.31792304
N        3.88823891       5.94900604       2.28657013
N        2.91377376       5.54725168       3.14350462
C        2.65455840       6.26635161       4.19708605
C        3.41278959       7.52370261       4.56733127
C        1.53963480       5.81761721       5.08976846
C        0.77584835       6.73040922       5.82743729
C       -0.25995157       6.27571436       6.64971422
C       -0.54010266       4.91189003       6.72602392
Br      -1.93642694       4.30170776       7.84435077
C        0.19882940       3.99667766       5.98014618
C        1.23520757       4.44972759       5.15956979
H        2.40229640       4.02303657       1.39719204
H        3.94687875       3.15995250       1.13987549
H        3.81360119       4.23229778      -1.17958727
H        3.03650292       3.16427594      -3.12502715
H        1.85179001       1.24353574      -4.10924487
H        0.46358546      -0.23240276      -2.68400398
H        1.42376558       2.16759886       0.73844974
H        4.41314887       6.80206560       2.44041621
H        4.48723856       7.31873722       4.55674845
H        3.16930856       7.88000462       5.57049536
H        3.18559545       8.31132367       3.84261620
H        0.95246638       7.80006386       5.76221106
H       -0.84677544       6.99209186       7.22004514
H       -0.02218336       2.93314483       6.02685305
H        1.80442629       3.72765004       4.57852162
O       -3.06664752      -6.94431015      -0.36313150
C       -2.11599633      -6.46517669       0.26124561
C       -1.77869712      -4.97033268       0.22408811
N       -1.99983931      -4.43259433      -1.12584673
C       -1.86166159      -3.06111808      -1.34744631
C       -2.44310797      -2.50513584      -2.49553785
C       -2.28145850      -1.15277050      -2.81507523
C       -1.50389728      -0.33547085      -2.00091525
C       -0.88301571      -0.88301571      -0.88301571
C       -1.04681187      -2.23314745      -0.56458363
N       -1.32207233      -7.27313870       1.04453620
N       -0.24691512      -6.79131107       1.72070537
C        0.51671114      -7.61680533       2.37627023
C        0.25739534      -9.10516351       2.47860724
C        1.72019305      -7.05402811       3.06635152
C        2.88495423      -7.81010553       3.24633101
C        3.99143294      -7.25112744       3.89364593
C        3.93868149      -5.93466000       4.35021506
Br       5.43425210      -5.18605427       5.23087213
C        2.79321261      -5.16607110       4.15749762
C        1.68637356      -5.72416047       3.51242153
H       -0.73709103      -4.80617704       0.51512714
H       -2.44003709      -4.47354321       0.94662453
H       -2.83144049      -4.83841846      -1.55562730
H       -3.03484947      -3.13118671      -3.15976983
H       -2.75448932      -0.74643023      -3.70365108
H       -1.37535264       0.71259109      -2.25242513
H       -0.51974843      -2.62927421       0.29610795
H       -1.54006729      -8.26263928       1.02790831
H       -0.77433351      -9.27489104       2.79999723
H        0.90120158      -9.59332603       3.21330662
H        0.41460754      -9.56917569       1.50026524
H        2.96377248      -8.82690538       2.87281373
H        4.89120582      -7.84662158       4.03014448
H        2.75011828      -4.13548936       4.50126266
H        0.79765445      -5.11497776       3.36376859
O       -3.35903118       6.81441765       0.20064034
C       -2.41558965       6.34911779      -0.44478003
C       -2.00972797       4.87348165      -0.35826794
N       -2.14769900       4.38829012       1.02229125
C       -1.93816745       3.03550633       1.29655221
C       -2.44364494       2.50738575       2.49275098
C       -2.20731417       1.17912105       2.86286900
C       -1.42953916       0.36024387       2.05050035
C       -0.88301571       0.88301571       0.88301571
C       -1.12134010       2.20900830       0.51419456
N       -1.69366344       7.15441924      -1.29740786
N       -0.62807934       6.68947537      -2.00003390
C        0.06834242       7.51674106      -2.72457468
C       -0.26221584       8.98633030      -2.87938522
C        1.26505914       6.97592991      -3.44338722
C        2.38554847       7.77278478      -3.70841603
C        3.48713096       7.23350227      -4.38032273
C        3.47427405       5.89668204      -4.77664454
Br       4.96266565       5.17442571      -5.69083001
C        2.37415631       5.08875120      -4.49923402
C        1.27215751       5.62702988      -3.82950700
H       -0.97533316       4.74155551      -0.68874774
H       -2.67856514       4.31636673      -1.02797610
H       -2.97742853       4.77677377       1.47128396
H       -3.03380157       3.13664829       3.15535616
H       -2.62258716       0.79330166       3.78868182
H       -1.24295649      -0.66882380       2.34105399
H       -0.65047188       2.58823358      -0.38579077
H       -1.95526933       8.13329837      -1.31376944
H       -1.31350569       9.09654289      -3.16082125
H        0.32645509       9.46816151      -3.66288859
H       -0.08396602       9.50048856      -1.93015167
H        2.43438210       8.80789641      -3.38319513
H        4.35229681       7.86058906      -4.58302098
H        2.36288737       4.04277634      -4.79578055
H        0.41916887       4.98730946      -3.61458588
O        3.75740806      -6.60616447       0.01051664
C        2.82620936      -6.15759728      -0.66387924
C        2.32533241      -4.71635351      -0.51674424
N        2.35219678      -4.31042250       0.89566109
C        2.04359738      -2.99176590       1.23486270
C        2.44472998      -2.51019743       2.48885425
C        2.10535578      -1.22347439       2.92047405
C        1.32705194      -0.40260267       2.11062876
C        0.88301571      -0.88301571       0.88301571
C        1.22415984      -2.16743894       0.45294417
N        2.20654593      -6.94925838      -1.60512949
N        1.15700720      -6.50462669      -2.34411306
C        0.55664429      -7.32462161      -3.15744193
C        0.98610079      -8.76000128      -3.37694114
C       -0.62730826      -6.81104498      -3.91625318
C       -1.67889195      -7.65395362      -4.29624138
C       -2.77069715      -7.13925669      -5.00251097
C       -2.81760475      -5.78197782      -5.31860962
Br      -4.29201971      -5.09252362      -6.27957387
C       -1.78772740      -4.92998911      -4.92690083
C       -0.69544246      -5.44352650      -4.22271866
H        1.30579536      -4.62477253      -0.90242696
H        2.99629008      -4.08074093      -1.11007524
H        3.17679533      -4.67691395       1.37177697
H        3.03308332      -3.14380751       3.14891518
H        2.44120315      -0.87219821       3.89116927
H        1.06042739       0.59384152       2.44860080
H        0.83100359      -2.51698876      -0.49507765
H        2.52881542      -7.90831024      -1.66232740
H        2.05682448      -8.79104323      -3.59864039
H        0.47513201      -9.22587525      -4.22218943
H        0.78498142      -9.34151414      -2.47219264
H       -1.68237858      -8.70831148      -4.03561372
H       -3.58204006      -7.80198038      -5.29466904
H       -1.82401516      -3.86877577      -5.16065219
H        0.10227149      -4.76968283      -3.91839961
