194
Properties=species:S:1:pos:R:3 pbc="F F F"
C       11.51889641      10.42637445      -4.66203951
O       11.30566486       9.02740245      -4.82218450
C       10.01972487       8.66830724      -5.12989855
C        9.22918158       9.39035172      -6.03171138
C        7.93330687       8.96133690      -6.33728124
C        7.42886625       7.80059290      -5.74694280
C        6.05407547       7.37064705      -6.07185126
N        5.54028946       6.30548196      -5.54451257
N        4.26284683       6.03038721      -5.91379019
C        3.58352162       4.91639330      -5.47230299
O        2.44062929       4.70522058      -5.88019529
C        4.33447826       3.97503199      -4.54152913
C        3.43682095       3.25929050      -3.54674694
C        2.99133689       1.97352963      -3.89067522
C        2.18204341       1.25039135      -3.02628798
C        1.80234356       1.80234356      -1.80234356
C        2.21519760       3.10336180      -1.41794363
C        1.84866826       3.70204965      -0.18555829
C        2.26220820       4.98606076       0.16640562
C        3.05197046       5.71297537      -0.70666809
C        3.43167038       5.15167030      -1.92674169
C        3.03860140       3.84676842      -2.31067714
C        8.21643796       7.06028119      -4.86167864
C        9.51104410       7.49101436      -4.56294229
H       10.74247696      10.88363612      -4.03861759
H       11.58475384      10.92524996      -5.63357279
H       12.47887748      10.56072001      -4.15422065
H        9.61178370      10.27887834      -6.52536478
H        7.33615805       9.53665037      -7.04040075
H        5.48758472       8.00175581      -6.78092783
H        3.76042968       6.63637767      -6.55464455
H        5.13300187       4.48575175      -3.99516823
H        4.84736444       3.24158945      -5.17745682
H        3.27132654       1.53022576      -4.84457058
H        1.85114497       0.25654885      -3.31646482
H        1.22532673       3.16943000       0.52886872
H        1.96147646       5.41274015       1.11948427
H        3.37560987       6.71665734      -0.44522803
H        4.04780934       5.76510209      -2.58003567
H        7.82469437       6.15283622      -4.40797752
C       10.28980133       6.70144693      -3.64439973
C       10.94201051       6.04018420      -2.87512033
Br      11.99657759       4.97097831      -1.63126060
C       -5.71005881      -7.98118398     -12.91606758
O       -5.10632423      -8.36446070     -11.68446688
C       -5.55242144      -7.68249624     -10.58301297
C       -6.90108133      -7.36197771     -10.38818565
C       -7.30909075      -6.69395560      -9.22887865
C       -6.36712226      -6.35361868      -8.25566101
C       -6.81483214      -5.63715822      -7.04458342
N       -5.97781969      -5.29450971      -6.11795460
N       -6.51542709      -4.62667566      -5.06492149
C       -5.76935379      -4.22332802      -3.97953610
O       -6.32882565      -3.65849686      -3.03872266
C       -4.28713036      -4.56858351      -3.99532551
C       -3.41923501      -3.55679547      -3.26682791
C       -3.09415989      -3.83192261      -1.92945925
C       -2.29207893      -2.96341416      -1.20322965
C       -1.80234356      -1.80234356      -1.80234356
C       -2.11603635      -1.47460393      -3.14586274
C       -1.64216980      -0.30355061      -3.79055579
C       -1.97053156      -0.00025714      -5.11107464
C       -2.78766383      -0.85769174      -5.82625835
C       -3.26916123      -2.01959870      -5.22132243
C       -2.94649561      -2.36330599      -3.88624536
C       -5.02158008      -6.68720649      -8.42961121
C       -4.62012850      -7.35759014      -9.58728212
H       -5.74967089      -6.89148520     -13.02357458
H       -6.70704477      -8.42067448     -13.01585734
H       -5.09068660      -8.37580069     -13.72733084
H       -7.65488813      -7.64352638     -11.11761232
H       -8.36138505      -6.45459052      -9.09723361
H       -7.89336106      -5.40627772      -6.97062958
H       -7.50729237      -4.41370355      -5.03045598
H       -3.90459414      -4.69707505      -5.01225267
H       -4.18568972      -5.55553487      -3.52518611
H       -3.47355397      -4.72901871      -1.44355020
H       -2.05486244      -3.20006154      -0.16923465
H       -1.00139734       0.40091644      -3.26540712
H       -1.58904652       0.90667943      -5.57236525
H       -3.05456532      -0.62867148      -6.85425844
H       -3.91187943      -2.65770542      -5.82336224
H       -4.29023243      -6.42755366      -7.66772202
C       -3.22430450      -7.68159380      -9.72974968
C       -2.05530191      -7.95294686      -9.84906627
Br      -0.16512358      -8.39170182     -10.04199110
C      -11.58237774      10.34999135       4.67494127
O      -11.35179354       8.95533202       4.84812626
C      -10.05860872       8.61390670       5.14541524
C       -9.26626779       9.35465037       6.03032652
C       -7.96239289       8.94339976       6.32613236
C       -7.45157636       7.78177805       5.74304754
C       -6.06857130       7.37068325       6.05731923
N       -5.54878186       6.30543484       5.53606730
N       -4.26435132       6.04859286       5.89408006
C       -3.57755070       4.93730659       5.45736061
O       -2.42794106       4.74332477       5.85477934
C       -4.32818205       3.97738681       4.54547052
C       -3.43362668       3.26053906       3.54869265
C       -2.97005368       1.98369097       3.90179710
C       -2.16232965       1.25992727       3.03646582
C       -1.80234356       1.80234356       1.80234356
C       -2.23390748       3.09435561       1.40823994
C       -1.88770496       3.68326224       0.16530900
C       -2.31940694       4.95862365      -0.19616725
C       -3.10754843       5.68647571       0.67758979
C       -3.46747293       5.13466451       1.90794492
C       -3.05565343       3.83854576       2.30184777
C       -8.24055960       7.02298686       4.87485133
C       -9.54310985       7.43604586       4.58584505
H      -10.81803680      10.80880842       4.03788546
H      -11.64307219      10.85892023       5.64158417
H      -12.54934412      10.46805900       4.17641502
H       -9.65329009      10.24435393       6.51838280
H       -7.36397800       9.53307889       7.01615228
H       -5.50136760       8.01587893       6.75302183
H       -3.76168593       6.66720489       6.52256107
H       -5.13833629       4.47313406       4.00245150
H       -4.82580219       3.24547083       5.19513769
H       -3.23453458       1.54799650       4.86359180
H       -1.81717896       0.27309719       3.33388249
H       -1.26638106       3.14961497      -0.55010801
H       -2.03399197       5.37793372      -1.15719335
H       -3.44523364       6.68354484       0.40871676
H       -4.08317163       5.74851125       2.56126420
H       -7.84374492       6.11491400       4.42684919
C      -10.32309729       6.62773093       3.68481976
C      -10.97633678       5.95076719       2.93021108
Br     -12.03256977       4.85617406       1.71007266
C        6.89613939      -6.59161536      13.11955561
O        5.97606673      -7.04680151      12.13238358
C        6.28254505      -6.68982738      10.84555823
C        7.58975487      -6.71602124      10.34546857
C        7.84441952      -6.37438353       9.01312196
C        6.78738948      -6.01470035       8.17431212
C        7.07736018      -5.64472402       6.77448958
N        6.13165455      -5.29767204       5.96095741
N        6.53401909      -4.96578468       4.70722047
C        5.65126544      -4.60921013       3.71174234
O        6.08090034      -4.36071696       2.58442786
C        4.17197518      -4.60935922       4.06970498
C        3.36078739      -3.57848396       3.30358704
C        2.70385123      -4.01067405       2.14101647
C        1.93049324      -3.13128704       1.39694246
C        1.80234356      -1.80234356       1.80234356
C        2.45918796      -1.31610010       2.96121497
C        2.35812753       0.02709409       3.40524277
C        3.01954902       0.48252575       4.54484007
C        3.80688050      -0.39156258       5.27317084
C        3.92569557      -1.72053161       4.86385519
C        3.25924817      -2.21857741       3.71822138
C        5.47619962      -6.00547609       8.65672206
C        5.22703422      -6.35112238       9.98684415
H        7.15377513      -5.53657052      12.97438503
H        7.79483427      -7.21551562      13.13322671
H        6.41102386      -6.68699142      14.09580286
H        8.42305941      -7.02154784      10.97141958
H        8.86695205      -6.40143506       8.64482207
H        8.13627780      -5.67534209       6.45864847
H        7.51538666      -4.98729539       4.44876985
H        4.00720974      -4.46508289       5.14162922
H        3.79331340      -5.61742618       3.85567113
H        2.79873597      -5.04183367       1.80555323
H        1.43180874      -3.49149913       0.50085078
H        1.75438643       0.74970248       2.86120406
H        2.91898214       1.51915482       4.85490502
H        4.33132088      -0.04630659       6.15986777
H        4.56024260      -2.36614191       5.46656257
H        4.65330406      -5.73174127       8.00046277
C        3.86240618      -6.32724601      10.44599579
C        2.71953019      -6.30724956      10.83053529
Br       0.87159639      -6.27491698      11.45230313
C       -0.00445707       0.01189536      -1.78238275
H       -0.66409135       0.67374010      -2.43557963
H        0.65740317      -0.63156657      -2.45157240
C       -0.90989263      -0.90692880      -0.91072765
C        0.90977584       0.90977584      -0.90977584
C       -0.00465871       1.77757030       0.00794375
H       -0.66225468       2.44313916      -0.64384735
H        0.64322798       2.43503045       0.67728295
C       -1.78241447       0.00034974      -0.00472694
H       -2.45427497      -0.65498947       0.64260836
H       -2.43311707       0.67328779      -0.65473579
C       -0.91132561       0.90220522       0.91563759
C       -0.01476271      -0.02253852       1.78660255
H       -0.67934791      -0.69751639       2.42135241
H        0.63392994       0.61504881       2.47327442
C        0.01484550      -1.77751727      -0.01636693
H        0.67870853      -2.42144646      -0.68295456
H       -0.62264859      -2.45592969       0.64226336
C        1.78714474       0.01002794       0.00389507
H        2.44202412       0.67113390       0.66197326
H        2.45385902      -0.65136977      -0.64189061
C        0.91606151      -0.90478549       0.90901405
