178
Properties=species:S:1:pos:R:3 pbc="F F F"
C        6.24245441       2.60754152      -3.32138088
O        5.33515599       2.26839854      -2.28306631
C        4.00305927       2.49885551      -2.50400279
C        3.17786195       1.71206121      -1.68612759
C        1.79191034       1.79191034      -1.79191034
C        1.20796113       2.65459458      -2.71170209
C        2.01936646       3.45623457      -3.51580329
C        3.41651137       3.41191098      -3.39480071
O        4.19705344       4.18759565      -4.20974623
C        3.93844445       5.59127906      -4.14176780
C        4.55724912       6.31833551      -2.94242086
O        5.21791815       5.76619577      -2.06298213
N        4.36210700       7.68114673      -2.88352729
N        3.67118420       8.37309028      -3.82778160
C        3.59619397       9.67096864      -3.71208851
C        4.22980476      10.45661023      -2.57886751
C        2.84135828      10.43464242      -4.75521137
C        3.18959795      11.74739313      -5.09757246
C        2.45133615      12.44271281      -6.06156073
C        1.37323514      11.82180347      -6.69057562
Br       0.37302853      12.76699754      -7.98540748
C        1.03087337      10.50930426      -6.37267265
C        1.76666159       9.81477383      -5.40827048
H        7.19363435       2.11318808      -3.09982257
H        6.43696853       3.68275148      -3.34001284
H        5.90367383       2.23852736      -4.29512972
H        3.63687768       1.02542524      -0.97789067
H        0.12704677       2.70448593      -2.81692825
H        1.54635053       4.09668282      -4.25381536
H        2.86874816       5.82088202      -4.19478780
H        4.39805034       6.01907667      -5.04093640
H        4.80043086       8.14448648      -2.09640148
H        3.94887723      10.01461337      -1.61871960
H        3.89629610      11.49580595      -2.55225731
H        5.31755787      10.43329093      -2.68840298
H        4.04071630      12.24600709      -4.64149796
H        2.72725502      13.46374776      -6.31600521
H        0.19574699      10.01904210      -6.86548892
H        1.48953985       8.79154755      -5.16378310
C       -6.25816537      -3.23175317      -2.68145828
O       -5.22800446      -2.89434324      -1.76427313
C       -3.95008339      -2.80621900      -2.24961517
C       -3.11989657      -2.01680788      -1.43934630
C       -1.79191034      -1.79191034      -1.79191034
C       -1.27162601      -2.34850734      -2.95412445
C       -2.08318490      -3.15173246      -3.75648695
C       -3.41283998      -3.41574522      -3.39463787
O       -4.20125269      -4.18579036      -4.20735227
C       -3.70078780      -5.49754904      -4.47315447
C       -3.92873260      -6.52797543      -3.36129747
O       -4.47876948      -6.27966981      -2.28865676
N       -3.49822366      -7.81180005      -3.61675731
N       -2.90867524      -8.17773482      -4.78564602
C       -2.59333664      -9.43317865      -4.95273583
C       -2.83920531     -10.51194486      -3.91413232
C       -1.95030864      -9.83846215      -6.24244127
C       -2.13434627     -11.11756132      -6.78265595
C       -1.50263249     -11.47371556      -7.97926164
C       -0.69708146     -10.54789017      -8.64064261
Br       0.16160094     -11.03535617     -10.25167832
C       -0.52367991      -9.26610464      -8.12306573
C       -1.15279078      -8.91027437      -6.92664075
H       -7.21332183      -2.98750968      -2.20581349
H       -6.26780557      -4.30505193      -2.88687534
H       -6.19345060      -2.64201423      -3.60186608
H       -3.53333443      -1.56858316      -0.53827601
H       -0.24266882      -2.15732875      -3.24846337
H       -1.67015659      -3.54752782      -4.67916430
H       -2.64157758      -5.49074819      -4.75209221
H       -4.25584195      -5.85220535      -5.35001611
H       -3.68120740      -8.48133595      -2.87877548
H       -2.44631548     -10.19051834      -2.94537638
H       -2.33660463     -11.44996912      -4.15778562
H       -3.91427286     -10.69384878      -3.83113014
H       -2.77717312     -11.84974605      -6.30130218
H       -1.64823014     -12.47161519      -8.38716266
H        0.09761187      -8.53903953      -8.63885035
H       -1.00844414      -7.90833294      -6.52809341
C       -2.12061859       5.97226537       4.07849285
O       -1.36711362       4.83504131       3.68446591
C       -2.05507854       3.75681152       3.19402751
C       -1.25378026       2.92356608       2.39870440
C       -1.79191034       1.79191034       1.79191034
C       -3.13318707       1.47352769       1.96754303
C       -3.93397256       2.28445885       2.77297291
C       -3.39625853       3.40782596       3.41913857
O       -4.20326764       4.20574967       4.18537800
C       -4.87370716       3.54027043       5.25751372
C       -4.02502411       3.28471180       6.50826959
O       -2.83841259       3.59331828       6.61536518
N       -4.66521042       2.68859178       7.57297882
N       -5.97968932       2.34310810       7.54925866
C       -6.50659854       1.84031421       8.63233836
C       -5.73583593       1.61029068       9.91915588
C       -7.95586575       1.46590799       8.60943833
C       -8.74593316       1.52411552       9.76451486
C      -10.09254927       1.14725210       9.71580832
C      -10.65115117       0.72365098       8.51081208
Br     -12.46768850       0.20694471       8.45080035
C       -9.87986474       0.68160319       7.35138236
C       -8.53400552       1.05597508       7.39972529
H       -1.42337294       6.81086230       4.17240977
H       -2.57623612       5.82297337       5.06052336
H       -2.86341435       6.25041786       3.32349870
H       -0.20784612       3.18321058       2.24913690
H       -3.56611221       0.60515524       1.47719350
H       -4.98753780       2.04067773       2.86863318
H       -5.34295112       2.60354872       4.93791814
H       -5.68548716       4.21294460       5.55963166
H       -4.09222747       2.55186974       8.39722162
H       -4.81335442       1.06274665       9.70610912
H       -6.29429651       1.01002653      10.64003633
H       -5.49244450       2.57592779      10.37087949
H       -8.34265607       1.87478286      10.71078242
H      -10.69566029       1.19126884      10.62007886
H      -10.31291512       0.35881442       6.40854848
H       -7.93854913       1.01621891       6.49010247
C        2.11702453      -5.96852837       4.08582391
O        1.36493411      -4.83062212       3.69106460
C        2.05401249      -3.75463956       3.19726552
C        1.25278635      -2.92138287       2.40188153
C        1.79191034      -1.79191034       1.79191034
C        3.13412226      -1.47575026       1.96438528
C        3.93489730      -2.28667256       2.76983447
C        3.39628012      -3.40778241       3.41916053
O        4.20322883      -4.20578368       4.18538280
C        4.87697402      -3.53954543       5.25497187
C        4.03116294      -3.27999240       6.50685015
O        2.84417292      -3.58613339       6.61678974
N        4.67450898      -2.68306960       7.56920243
N        5.98959490      -2.34013662       7.54232457
C        6.51952179      -1.83628886       8.62344046
C        5.75165102      -1.60235073       9.91128075
C        7.96945208      -1.46468868       8.59707131
C        8.76160659      -1.52220477       9.75075217
C       10.10884167      -1.14800091       9.69876712
C       10.66595129      -0.72775697       8.49190598
Br      12.48335026      -0.21462754       8.42745575
C        9.89253867      -0.68644461       7.33386700
C        8.54606453      -1.05815909       7.38548227
H        1.41836568      -6.80561528       4.18266404
H        2.57479526      -5.81823754       5.06670003
H        2.85785026      -6.24953070       3.32994994
H        0.20607731      -3.17931813       2.25479816
H        3.56776289      -0.60913820       1.47155986
H        4.98910454      -2.04471767       2.86302651
H        5.34738863      -2.60432885       4.93270050
H        5.68804753      -4.21318926       5.55682663
H        4.10335844      -2.54368905       8.39427133
H        4.82980815      -1.05345630       9.69894574
H        6.31262444      -1.00178192      10.62995301
H        5.50728486      -2.56666165      10.36530527
H        8.35946697      -1.87030312      10.69845126
H       10.71358961      -1.19144700      10.60197138
H       10.32440500      -0.36627493       6.38959809
H        7.94895288      -1.01899831       6.47691930
C       -0.00445707       0.01189536      -1.78238275
H       -0.66409135       0.67374010      -2.43557963
H        0.65740317      -0.63156657      -2.45157240
C       -0.90989263      -0.90692880      -0.91072765
C        0.90977584       0.90977584      -0.90977584
C       -0.00465871       1.77757030       0.00794375
H       -0.66225468       2.44313916      -0.64384735
H        0.64322798       2.43503045       0.67728295
C       -1.78241447       0.00034974      -0.00472694
H       -2.45427497      -0.65498947       0.64260836
H       -2.43311707       0.67328779      -0.65473579
C       -0.91132561       0.90220522       0.91563759
C       -0.01476271      -0.02253852       1.78660255
H       -0.67934791      -0.69751639       2.42135241
H        0.63392994       0.61504881       2.47327442
C        0.01484550      -1.77751727      -0.01636693
H        0.67870853      -2.42144646      -0.68295456
H       -0.62264859      -2.45592969       0.64226336
C        1.78714474       0.01002794       0.00389507
H        2.44202412       0.67113390       0.66197326
H        2.45385902      -0.65136977      -0.64189061
C        0.91606151      -0.90478549       0.90901405
