157
Properties=species:S:1:pos:R:3 pbc="F F F"
C        0.00000000       0.00000000       0.00000000
C        5.33255038       1.69763750      -2.41147685
O        4.42525197       1.35849451      -1.37316228
C        3.09315524       1.58895148      -1.59409877
C        2.26795792       0.80215718      -0.77622357
C        0.88200632       0.88200632      -0.88200632
C        0.29805711       1.74469055      -1.80179807
C        1.10946243       2.54633055      -2.60589927
C        2.50660734       2.50200696      -2.48489669
O        3.28714941       3.27769163      -3.29984220
C        3.02854043       4.68137503      -3.23186378
C        3.64734510       5.40843148      -2.03251684
O        4.30801412       4.85629175      -1.15307810
N        3.45220297       6.77124271      -1.97362326
N        2.76128018       7.46318626      -2.91787758
C        2.68628994       8.76106461      -2.80218449
C        3.31990073       9.54670620      -1.66896348
C        1.93145426       9.52473839      -3.84530735
C        2.27969392      10.83748910      -4.18766844
C        1.54143213      11.53280879      -5.15165671
C        0.46333112      10.91189945      -5.78067159
Br      -0.53687549      11.85709351      -7.07550346
C        0.12096934       9.59940024      -5.46276863
C        0.85675757       8.90486980      -4.49836645
H        6.28373033       1.20328405      -2.18991855
H        5.52706450       2.77284746      -2.43010881
H        4.99376981       1.32862333      -3.38522569
H        2.72697366       0.11552122      -0.06798665
H       -0.78285726       1.79458190      -1.90702423
H        0.63644651       3.18677880      -3.34391134
H        1.95884414       4.91097799      -3.28488378
H        3.48814632       5.10917265      -4.13103238
H        3.89052684       7.23458246      -1.18649746
H        3.03897320       9.10470934      -0.70881557
H        2.98639208      10.58590193      -1.64235329
H        4.40765384       9.52338691      -1.77849896
H        3.13081228      11.33610307      -3.73159393
H        1.81735100      12.55384373      -5.40610118
H       -0.71415703       9.10913807      -5.95558490
H        0.57963583       7.88164352      -4.25387907
C       -1.25988689      -3.07225553      -5.10952231
O       -0.87883415      -1.94855902      -4.32951559
C       -1.35330008      -1.87638558      -3.04651983
C       -0.56671070      -1.05224635      -2.22738163
C       -0.88200632      -0.88200632      -0.88200632
C       -1.98297545      -1.52842460      -0.33314568
C       -2.78354145      -2.33428445      -1.14386634
C       -2.49807051      -2.48628177      -2.50915871
O       -3.28036308      -3.30094327      -3.28337690
C       -4.66919919      -2.96567131      -3.30690873
C       -5.05156428      -1.80468606      -4.23204308
O       -4.24718758      -1.16294705      -4.90724935
N       -6.39249562      -1.49656870      -4.30800462
N       -7.34934644      -2.17347619      -3.61952139
C       -8.59775746      -1.84306481      -3.80871678
C       -9.04701025      -0.73975539      -4.74880478
C       -9.65277152      -2.59254442      -3.05618405
C      -10.93503449      -2.78336275      -3.58645423
C      -11.90631066      -3.46998309      -2.84960388
C      -11.59201727      -3.97507224      -1.58881264
Br     -12.90888280      -4.89396540      -0.59287329
C      -10.31366601      -3.80903105      -1.06044115
C       -9.34346644      -3.12142080      -1.79510659
H       -0.58936726      -3.11381361      -5.97375206
H       -2.27524105      -2.95770841      -5.49707131
H       -1.13824682      -4.01077391      -4.55859810
H        0.30419735      -0.55978598      -2.65489290
H       -2.22113773      -1.41963413       0.72202299
H       -3.61746206      -2.86024960      -0.68942499
H       -5.07003078      -2.78010213      -2.30457301
H       -5.18050233      -3.85645218      -3.69139684
H       -6.62497115      -0.74284123      -4.94379436
H       -8.48238350       0.17436308      -4.54447771
H      -10.10201258      -0.48786303      -4.62477169
H       -8.87386043      -1.05386897      -5.78181031
H      -11.19893655      -2.42256250      -4.57701022
H      -12.90061333      -3.60787173      -3.26881086
H      -10.06224469      -4.20714275      -0.08117850
H       -8.34909804      -2.99330476      -1.37275563
C       -5.10602850       3.07965403       1.25598221
O       -3.97740363       2.69419153       0.48531360
C       -2.87259718       2.24468430       1.15892401
C       -2.03950831       1.45008702       0.35674335
C       -0.88200632       0.88200632       0.88200632
C       -0.53728816       1.09613234       2.21112522
C       -1.34832237       1.90132823       3.01204165
C       -2.49845007       2.50895839       2.48610253
O       -3.29542656       3.27542688       3.29382980
C       -2.64004007       4.37783283       3.92390633
C       -2.43319176       5.61393482       3.04116684
O       -2.77121198       5.68622120       1.85995079
N       -1.84764444       6.70662906       3.64279545
N       -1.47179588       6.72150116       4.94904698
C       -0.98253880       7.82778118       5.43921907
C       -0.80027601       9.10116253       4.63413188
C       -0.57472652       7.84728055       6.87949293
C       -0.64184802       9.01886282       7.64414062
C       -0.23331961       9.01022839       8.98234962
C        0.23094176       7.82858537       9.55825854
Br       0.79022562       7.82281656      11.36313054
C        0.28244236       6.65272205       8.81285851
C       -0.12357009       6.66106761       7.47535613
H       -5.96228198       3.13810265       0.57654830
H       -4.96935192       4.07520733       1.68546151
H       -5.34945201       2.33606115       2.02210567
H       -2.31938887       1.27024954      -0.67915688
H        0.35195100       0.63596944       2.63473043
H       -1.08286374       2.02710344       4.05716947
H       -1.68564682       4.09074064       4.37831845
H       -3.30088667       4.68339677       4.74406790
H       -1.74331812       7.52017185       3.04811678
H       -0.26909896       8.87918180       3.70421736
H       -0.20442252       9.84839738       5.16182740
H       -1.78150100       9.52492663       4.40311208
H       -1.02362824       9.94720656       7.22767448
H       -0.28466718       9.92709636       9.56553237
H        0.63695809       5.72786928       9.25965475
H       -0.07618115       5.73893173       6.90004554
C        4.48335294      -0.93960957       4.01870222
O        3.88629893      -0.43902459       2.83158525
C        2.82942435      -1.13698850       2.30979264
C        2.02030994      -0.34698893       1.47903980
C        0.88200632      -0.88200632       0.88200632
C        0.53294678      -2.20891943       1.10267952
C        1.34190653      -3.00878185       1.91100387
C        2.51097447      -2.49246600       2.49007052
O        3.27880935      -3.28538682       3.30048707
C        3.75451470      -4.49015511       2.69710943
C        4.97414742      -4.33219042       1.78195558
O        5.52230534      -3.25774236       1.53733628
N        5.48004195      -5.48836517       1.22866182
N        4.95392424      -6.71826708       1.47015269
C        5.54525417      -7.75747013       0.94681475
C        6.78504544      -7.67490846       0.07561652
C        4.97066715      -9.11300810       1.21782475
C        5.78016830     -10.25484838       1.26983477
C        5.21060936     -11.51124005       1.50404821
C        3.83459671     -11.62390106       1.69740439
Br       3.06784019     -13.32335913       2.00452216
C        3.02268006     -10.49214440       1.66831375
C        3.59069759      -9.23695450       1.43234173
H        5.10017242      -0.13852264       4.43823787
H        5.15055717      -1.77752933       3.80193427
H        3.73365841      -1.20114383       4.77281659
H        2.28616935       0.69603525       1.32034742
H       -0.36758973      -2.62678461       0.65955399
H        1.03348866      -4.03208269       2.10156530
H        2.96462554      -5.02814943       2.16193095
H        4.06617690      -5.13290103       3.52927342
H        6.30048759      -5.36355004       0.64756913
H        6.63257602      -6.93740992      -0.71748782
H        7.01276949      -8.62105206      -0.41917426
H        7.63900866      -7.37922875       0.69130230
H        6.85825505     -10.19216572       1.14808851
H        5.84798310     -12.39217440       1.53713841
H        1.95067712     -10.57439555       1.82549326
H        2.94827869      -8.35931762       1.40756211
