165
Properties=species:S:1:pos:R:3 pbc="F F F"
C        0.00000000       0.00000000       0.00000000
C        5.33255038       1.69763750      -2.41147685
O        4.42525197       1.35849451      -1.37316228
C        3.09315524       1.58895148      -1.59409877
C        2.26795792       0.80215718      -0.77622357
C        0.88200632       0.88200632      -0.88200632
C        0.29805711       1.74469055      -1.80179807
C        1.10946243       2.54633055      -2.60589927
C        2.50660734       2.50200696      -2.48489669
O        3.28714941       3.27769163      -3.29984220
C        3.02854043       4.68137503      -3.23186378
C        3.64734510       5.40843148      -2.03251684
O        4.30801412       4.85629175      -1.15307810
N        3.45220297       6.77124271      -1.97362326
N        2.76128018       7.46318626      -2.91787758
C        2.68628994       8.76106461      -2.80218449
C        3.31990073       9.54670620      -1.66896348
C        1.93145426       9.52473839      -3.84530735
C        2.27969392      10.83748910      -4.18766844
C        1.54143213      11.53280879      -5.15165671
C        0.46333112      10.91189945      -5.78067159
C        0.12096934       9.59940024      -5.46276863
C        0.85675757       8.90486980      -4.49836645
H        6.28373033       1.20328405      -2.18991855
H        5.52706450       2.77284746      -2.43010881
H        4.99376981       1.32862333      -3.38522569
H        2.72697366       0.11552122      -0.06798665
H       -0.78285726       1.79458190      -1.90702423
H        0.63644651       3.18677880      -3.34391134
H        1.95884414       4.91097799      -3.28488378
H        3.48814632       5.10917265      -4.13103238
H        3.89052684       7.23458246      -1.18649746
H        3.03897320       9.10470934      -0.70881557
H        2.98639208      10.58590193      -1.64235329
H        4.40765384       9.52338691      -1.77849896
H        3.13081228      11.33610307      -3.73159393
H        1.81735100      12.55384373      -5.40610118
H       -0.71415703       9.10913807      -5.95558490
H        0.57963583       7.88164352      -4.25387907
C       -0.29891303      11.63221927      -6.76744573
C       -0.93729251      12.23548712      -7.59386908
Br      -1.96949813      13.21092022      -8.93012573
C       -1.17085595      -3.25244215      -5.01836664
O       -0.77248923      -2.11128632      -4.27313321
C       -1.30103051      -1.95623845      -3.01893653
C       -0.51413067      -1.13062437      -2.20158363
C       -0.88200632      -0.88200632      -0.88200632
C       -2.03654280      -1.45049737      -0.35750555
C       -2.83689851      -2.25683140      -1.16796234
C       -2.49700042      -2.48683799      -2.50967258
O       -3.28120999      -3.30104240      -3.28243086
C       -4.64989433      -2.90423224      -3.38765267
C       -4.93365470      -1.77258864      -4.38205008
O       -4.06951798      -1.20127169      -5.04659430
N       -6.25344478      -1.40756846      -4.53605571
N       -7.27201033      -2.00638165      -3.86395203
C       -8.49324720      -1.62875631      -4.12753554
C       -8.84582529      -0.55232437      -5.13742076
C       -9.61615650      -2.29243796      -3.39290554
C      -10.88053562      -2.44967217      -3.97464367
C      -11.91616744      -3.05520477      -3.25452541
C      -11.68427615      -3.51322368      -1.95840233
C      -10.42489876      -3.38062464      -1.37761481
C       -9.39039355      -2.77395064      -2.09564964
H       -0.46434132      -3.36585884      -5.84673276
H       -2.16081771      -3.11033577      -5.45886729
H       -1.11952605      -4.16810502      -4.41998776
H        0.39794405      -0.69944756      -2.60897802
H       -2.31714609      -1.28059783       0.67899505
H       -3.71489878      -2.72183983      -0.73039803
H       -5.08672639      -2.65282382      -2.41515570
H       -5.18513919      -3.78811626      -3.75509590
H       -6.42033338      -0.67529234      -5.21598104
H       -8.24803313       0.34379381      -4.94825880
H       -9.89213105      -0.24689120      -5.07562505
H       -8.64092582      -0.92306979      -6.14554410
H      -11.08138384      -2.12499958      -4.99212586
H      -12.89575429      -3.16745708      -3.71408454
H      -10.23777328      -3.74249755      -0.37029511
H       -8.41135212      -2.67130214      -1.63250416
C      -12.75379082      -4.12984917      -1.21711199
C      -13.64950936      -4.64627301      -0.59628132
Br     -15.09781048      -5.48128669       0.40754935
C       -5.28809485       2.59797048       1.55559940
O       -4.21660603       2.24844451       0.69185821
C       -2.99022097       2.02591422       1.26007030
C       -2.15863747       1.23482945       0.45287176
C       -0.88200632       0.88200632       0.88200632
C       -0.41512633       1.31068566       2.11873374
C       -1.22657050       2.11462388       2.92049787
C       -2.50130452       2.50714233       2.48506413
O       -3.29294421       3.27553267       3.29620636
C       -2.72111781       4.52152015       3.69914128
C       -2.78636652       5.64437374       2.65755317
O       -3.26750604       5.51807208       1.53180586
N       -2.28531311       6.86879638       3.04295945
N       -1.76388595       7.10200632       4.27645175
C       -1.37250329       8.31359848       4.56343727
C       -1.45779388       9.48061367       3.59716286
C       -0.80448476       8.57301214       5.92400310
C       -0.93705890       9.82010307       6.54768949
C       -0.37657805      10.03828960       7.81102997
C        0.30573645       9.00695625       8.45468235
C        0.42577306       7.75638588       7.85252539
C       -0.13211033       7.53830518       6.58957831
H       -6.21836724       2.46412064       0.99444505
H       -5.23602169       3.65105092       1.84294816
H       -5.33829959       1.93990256       2.42941668
H       -2.53182187       0.88666014      -0.50800049
H        0.57116232       1.01895125       2.47095994
H       -0.85927565       2.40912968       3.89873131
H       -1.69019851       4.41186836       4.05263904
H       -3.31580375       4.85401982       4.55852778
H       -2.36117137       7.60223560       2.34819978
H       -1.01477040       9.20046805       2.63725967
H       -0.90916931      10.35642770       3.94905029
H       -2.50710218       9.75142744       3.45101009
H       -1.48564737      10.63315962       6.07970228
H       -0.48095651      11.01235641       8.28398300
H        0.95063132       6.94760873       8.35358853
H       -0.02999865       6.55964010       6.12551968
C        0.88744382       9.23636778       9.75182802
C        1.37462375       9.42849993      10.83818751
Br       2.16235249       9.73916138      12.59473894
C        4.35929625      -0.92647238       4.15589610
O        3.78883088      -0.40210228       2.96597560
C        2.78164265      -1.11878858       2.37577426
C        1.97412725      -0.32789271       1.54431870
C        0.88200632      -0.88200632       0.88200632
C        0.57813954      -2.22915167       1.03725451
C        1.38675935      -3.02900270       1.84593020
C        2.51103813      -2.49165725       2.49081561
O        3.27823797      -3.28624500       3.30020027
C        3.82470473      -4.44666217       2.67041233
C        5.07136972      -4.20531310       1.81161060
O        5.58506242      -3.10161588       1.63070567
N        5.64410370      -5.31805538       1.23490987
N        5.15876462      -6.57599214       1.40758726
C        5.81096281      -7.56985311       0.86872313
C        7.07908280      -7.40477493       0.05171269
C        5.28112506      -8.95628090       1.06409404
C        6.13311103     -10.06726499       1.10447544
C        5.60573921     -11.35303207       1.26712634
C        4.22891892     -11.52625699       1.40072625
C        3.37404243     -10.42635205       1.38274373
C        3.89999109      -9.14177380       1.21822893
H        4.92691662      -0.11967362       4.63034270
H        5.06738218      -1.72871923       3.93391937
H        3.59219397      -1.24668210       4.86874276
H        2.20390715       0.73011539       1.43668976
H       -0.28720166      -2.66330231       0.54264823
H        1.11246935      -4.07023351       1.98443379
H        3.07819704      -4.99280776       2.08370111
H        4.12958364      -5.10974622       3.48902149
H        6.48066093      -5.13855950       0.69238632
H        6.92785097      -6.64251847      -0.71787132
H        7.36340983      -8.32086687      -0.46962941
H        7.89617143      -7.10132684       0.71204144
H        7.21170988      -9.95828333       1.02851607
H        6.27614128     -12.20938440       1.29177024
H        2.30093725     -10.55605701       1.49357168
H        3.22436369      -8.28924104       1.20155369
C        3.68835211     -12.85126945       1.56113041
C        3.23562741     -13.96096739       1.69546889
Br       2.50360986     -15.75525510       1.91268286
