193
Properties=species:S:1:pos:R:3 pbc="F F F"
C        0.00000000       0.00000000       0.00000000
O        0.49955027      11.16856035       1.91177172
C        1.43960839      10.52054527       2.37491145
N        2.46688417      10.13268538       1.52416361
N        3.73998498       9.86766391       1.95223601
C        4.23640334       8.68799412       1.68947661
C        3.48860757       7.49982776       1.14653153
N        3.94620326       6.51046225       0.45894000
N        5.23791596       6.24188004       0.22511149
C        5.49893185       4.99744562      -0.33680123
O        6.58178692       4.44063141      -0.14254404
C        4.37495878       4.36359872      -1.19061567
N        3.55951771       3.39823952      -0.43702851
C        2.65817675       2.54832119      -1.08102812
C        2.43261497       2.54875568      -2.46513651
C        1.48738240       1.69831031      -3.05406723
C        0.70918488       0.86097478      -2.26263248
C        0.88257625       0.88257625      -0.88257625
C        1.84437518       1.71396279      -0.29797796
C        2.05242520       7.35285215       1.50709228
C        1.52601809      10.07841383       3.84139957
N        0.26980532       9.54370276       4.43880018
C       -0.21176130       8.28943329       4.02979291
C       -0.68140539       8.06563110       2.73075546
C       -1.09213270       6.79249210       2.30926796
C       -1.07828542       5.72326402       3.19941073
C       -0.67282118       5.94306777       4.51154324
Br      -0.71954516       4.51190295       5.74861528
C       -0.23617698       7.20861389       4.92521242
H        2.39594962      10.59554680       0.61832885
H        5.29135767       8.50002276       1.93597661
H        5.96245663       6.60266375       0.83478857
H        4.87480724       3.88234701      -2.03758782
H        3.72788818       5.15055554      -1.59721040
H        4.04828976       2.95610592       0.33825109
H        3.00270149       3.19502050      -3.12450877
H        1.35846887       1.69710931      -4.13400698
H       -0.03048030       0.21171725      -2.72409173
H        1.94737365       1.72935546       0.78410929
H        1.43669435       7.95705273       0.84060769
H        1.94903863       7.62730455       2.55384025
H        1.74422831       6.30695070       1.41111614
H        1.78524355      10.98628463       4.40035351
H        2.34020462       9.36750262       4.00582144
H        0.35362815       9.56721230       5.45310432
H       -0.72268578       8.88337023       2.01546886
H       -1.40630005       6.63723841       1.27980520
H       -1.39210679       4.73727427       2.86541082
H        0.08204081       7.34561442       5.95449339
O        4.65750583      -8.44574062      -5.96810411
C        4.11964236      -8.79037493      -4.91450964
N        2.73785721      -8.92912059      -4.88414255
N        2.08141765      -9.73956034      -3.99727020
C        1.18143534      -9.19179556      -3.22456064
C        0.92556111      -7.71895408      -3.04851083
N       -0.16703086      -7.13120911      -2.69948554
N       -1.27653284      -7.73099248      -2.24715919
C       -2.23910992      -6.88387870      -1.71019007
O       -3.02067300      -7.29474109      -0.84954828
C       -2.26475772      -5.42877657      -2.23563888
N       -1.54035110      -4.49235439      -1.36208025
C       -1.64777384      -3.11033716      -1.52941506
C       -2.41549236      -2.49952583      -2.53148897
C       -2.45714872      -1.10637335      -2.67623787
C       -1.68987561      -0.29299783      -1.84991870
C       -0.88257625      -0.88257625      -0.88257625
C       -0.86123931      -2.27252346      -0.72255316
C        2.07739683      -6.78730705      -3.18827485
C        4.88797760      -9.04056996      -3.61043999
N        5.94732013      -8.04777208      -3.27425596
C        5.58010050      -6.75206372      -2.87591586
C        4.95751658      -5.85745331      -3.75353353
C        4.52829818      -4.59198068      -3.32740894
C        4.75356549      -4.18207938      -2.01705397
C        5.42647563      -5.03577091      -1.14940808
Br       5.80196567      -4.45899778       0.61328960
C        5.83062256      -6.31075981      -1.56708724
H        2.33827242      -8.88995693      -5.82148305
H        0.57617774      -9.84847350      -2.58310805
H       -1.23657678      -8.65674263      -1.83701240
H       -3.32207668      -5.15611623      -2.31654916
H       -1.83918525      -5.39051100      -3.24595789
H       -1.50025267      -4.77926654      -0.38662536
H       -3.01946077      -3.09084917      -3.21192082
H       -3.08818593      -0.66001611      -3.44138313
H       -1.71746490       0.78650883      -1.97437261
H       -0.20669699      -2.71189301       0.02597018
H        2.24853850      -6.56087174      -4.24080614
H        2.93299546      -7.25131357      -2.70418482
H        1.87137989      -5.85052807      -2.66091469
H        5.38812638     -10.00675516      -3.75254589
H        4.21510514      -9.15996548      -2.75702546
H        6.57240614      -8.45725156      -2.58289071
H        4.78286850      -6.13906578      -4.78901830
H        4.00344072      -3.93633285      -4.01824103
H        4.41326731      -3.20233534      -1.69068863
H        6.34656349      -6.95681631      -0.86290902
O       -0.10858131      11.23050656      -1.58274898
C       -1.05285553      10.62564432      -2.09325764
N       -2.11678414      10.24432078      -1.28569898
N       -3.38348849      10.03126300      -1.75933861
C       -3.92256557       8.86006541      -1.54771012
C       -3.22739786       7.63393717      -1.01943124
N       -3.73504539       6.63905438      -0.37637427
N       -5.04072661       6.40333634      -0.18937843
C       -5.35570466       5.15133064       0.32614340
O       -6.44817176       4.63396878       0.08282183
C       -4.27774999       4.45825360       1.19316958
N       -3.46865954       3.49119261       0.43493359
C       -2.61312884       2.59529706       1.07910016
C       -2.43015929       2.54768324       2.46866463
C       -1.52910571       1.65155334       3.05910089
C       -0.75226038       0.81466514       2.26586662
C       -0.88257625       0.88257625       0.88257625
C       -1.80088027       1.76004340       0.29539226
C       -1.78584757       7.45381725      -1.34147975
C       -1.10740431      10.23014952      -3.57452147
N        0.15007133       9.67519983      -4.15042060
C        0.58139073       8.39516504      -3.76589522
C        1.00416142       8.11857035      -2.46093867
C        1.36376291       6.82148231      -2.06662795
C        1.34541670       5.78010949      -2.98912492
C        0.98704967       6.05113256      -4.30537954
Br       1.02908963       4.65660872      -5.58377658
C        0.60108973       7.34119618      -4.69288196
H       -2.05990571      10.67766437      -0.36440251
H       -4.97459429       8.71190834      -1.83109882
H       -5.73520753       6.80410695      -0.80898266
H       -4.81739204       3.96757882       2.00977121
H       -3.62033454       5.21258672       1.64273287
H       -3.94637794       3.08747728      -0.36771065
H       -3.00071676       3.19122490       3.13028911
H       -1.43342730       1.61430662       4.14185125
H       -0.04670233       0.12962559       2.72900075
H       -1.87017964       1.81073883      -0.78829866
H       -1.17313640       8.01879631      -0.63879332
H       -1.64233281       7.75596376      -2.37579364
H       -1.51195771       6.39657531      -1.26847015
H       -1.32228744      11.16174700      -4.11285976
H       -1.93694170       9.54971417      -3.78477007
H        0.09809496       9.73140268      -5.16557160
H        1.04779742       8.91304008      -1.72002707
H        1.64149385       6.62614864      -1.03352162
H        1.61941519       4.77547785      -2.67630600
H        0.31876395       7.51841199      -5.72648619
O       -2.83153666      -1.74441822      10.84345734
C       -3.14260976      -2.65451595      10.07333602
N       -2.16559398      -3.56042900       9.68057091
N       -2.44343947      -4.83467011       9.26418224
C       -2.03091673      -5.18951307       8.07632452
C       -1.46025631      -4.28532501       7.01683509
N       -0.64708884      -4.58264213       6.06217221
N       -0.26661335      -5.81664158       5.70465628
C        0.42542134      -5.90546950       4.50228786
O        0.38669438      -6.94225702       3.83601097
C        1.21901356      -4.65457065       4.05558896
N        0.47811005      -3.81917131       3.09750438
C        1.10428126      -2.78657864       2.39666616
C        2.45461850      -2.44098551       2.55090315
C        3.02199424      -1.36968238       1.84808333
C        2.23588660      -0.58692975       1.00997580
C        0.88257625      -0.88257625       0.88257625
C        0.32277869      -1.96807721       1.56546003
C       -1.94371926      -2.87906260       6.96284174
C       -4.54914478      -2.82667900       9.48549813
N       -5.21581638      -1.58219996       9.00832432
C       -4.74635468      -0.94736171       7.84687205
C       -3.48420590      -0.34558906       7.79208709
C       -2.99385373       0.22194528       6.60689045
C       -3.78074213       0.23320323       5.45951323
C       -5.06173069      -0.30570925       5.51472480
Br      -6.16651825      -0.22996428       3.98029648
C       -5.54115483      -0.89751363       6.69086569
H       -1.31521884      -3.45503731      10.23334909
H       -2.15665142      -6.23893339       7.77312183
H       -0.83274505      -6.62360220       5.93947466
H        2.14948666      -5.02889062       3.61636478
H        1.49012854      -4.05336794       4.93215764
H       -0.20423169      -4.32930231       2.54107396
H        3.10650721      -3.01057196       3.20515159
H        4.08027533      -1.14656127       1.96274857
H        2.67904223       0.24987120       0.47615764
H       -0.74138993      -2.16706868       1.46694107
H       -1.39580745      -2.26833686       7.68060997
H       -3.01565887      -2.89539522       7.14276658
H       -1.78618918      -2.46385836       5.96239369
H       -5.15823989      -3.22079083      10.30862373
H       -4.57070448      -3.57956941       8.69302087
H       -6.21535597      -1.75699081       8.92610128
H       -2.85115400      -0.32073078       8.67563880
H       -1.98995967       0.63918233       6.58027517
H       -3.39306174       0.66916932       4.54198772
H       -6.54286766      -1.31698413       6.69904538
