162
Properties=species:S:1:pos:R:3 pbc="F F F"
C        1.78807406       1.78807406      -1.78807406
C        3.08144636       1.40102279      -2.11073703
C        3.85131621       2.23622661      -2.91900990
C        3.30770545       3.43319308      -3.36895948
N        4.07571091       4.25315730      -4.20252128
C        3.81505664       5.52053490      -4.21107213
C        4.55620679       6.45939622      -5.07802343
C        4.22510504       7.81737354      -5.03694355
C        4.90406524       8.72176984      -5.85742608
C        5.91128560       8.26542736      -6.71445715
C        6.24645135       6.90820319      -6.75126823
C        5.56647702       6.00382981      -5.93190401
C        6.63353683       9.19946658      -7.60212936
N        6.33844884      10.45849808      -7.65001160
C        7.07986244      11.26820487      -8.51681925
C        6.48870126      12.41368420      -9.03641162
C        7.22906599      13.23504061      -9.88522428
C        8.54069232      12.88772370     -10.17716328
Br       9.58968265      13.95889935     -11.31810231
C        9.05855088      11.73459264      -9.60815578
N        8.35754830      10.91811332      -8.78480840
N        2.04809210       3.82223366      -3.07046663
C        1.31744733       2.99190917      -2.28731436
H        3.49574781       0.46502552      -1.74900523
H        4.86272259       1.96315035      -3.19913304
H        3.03163600       5.96925494      -3.57216905
H        3.44180558       8.18141903      -4.37699479
H        4.64477432       9.77768317      -5.82659791
H        7.02765206       6.54366522      -7.41351876
H        5.82323696       4.94735326      -5.96569627
H        7.42870775       8.75328652      -8.22829794
H        5.46341511      12.65631045      -8.78021078
H        6.77755651      14.12996277     -10.30229480
H       10.08022270      11.41863578      -9.79833105
H        0.31169573       3.34089522      -2.07107012
C       -1.78807406      -1.78807406      -1.78807406
C       -3.12042246      -1.46598694      -2.00679678
C       -3.88881938      -2.29862510      -2.81910823
C       -3.30407480      -3.42901833      -3.37676487
N       -4.07315307      -4.24483362      -4.21340280
C       -3.73773871      -5.49008017      -4.31884479
C       -4.47504605      -6.42060006      -5.19798033
C       -4.06082059      -7.75456883      -5.26403272
C       -4.73527604      -8.64956960      -6.09841551
C       -5.82100226      -8.20794160      -6.86222625
C       -6.23895704      -6.87524058      -6.79172515
C       -5.56356167      -5.98013030      -5.95851887
C       -6.54110231      -9.13119906      -7.76283140
N       -6.17441104     -10.36355649      -7.90899098
C       -6.91974894     -11.16544779      -8.77968983
C       -6.29520210     -12.23731208      -9.40628289
C       -7.03764035     -13.05182426     -10.25986627
C       -8.38381020     -12.77233760     -10.44943150
Br      -9.43735774     -13.83789039     -11.59143618
C       -8.93263209     -11.69112878      -9.77753843
N       -8.23074191     -10.88246414      -8.94726397
N       -2.00678387      -3.75379526      -3.18021325
C       -1.27877625      -2.92701884      -2.39087577
H       -3.56629791      -0.58195191      -1.56152874
H       -4.93070461      -2.07456136      -3.01974000
H       -2.88938432      -5.92532390      -3.75835177
H       -3.21633691      -8.10674116      -4.67714133
H       -4.41142969      -9.68662985      -6.15099585
H       -7.08152727      -6.52230456      -7.38100421
H       -5.88511073      -4.94216831      -5.90900744
H       -7.40019234      -8.70000539      -8.31009448
H       -5.24285773     -12.42871368      -9.22836493
H       -6.56072121     -13.88922625     -10.75986662
H       -9.98156021     -11.43042493      -9.88520439
H       -0.24204693      -3.22321407      -2.25840007
C       -1.78807406       1.78807406       1.78807406
C       -1.24323880       2.84331246       2.50665492
C       -2.08492437       3.62296482       3.29866353
C       -3.43908678       3.31660046       3.35417076
N       -4.28255983       4.12008639       4.12874326
C       -5.37184603       3.59064945       4.58416818
C       -6.33534762       4.36898769       5.38929112
C       -7.49250282       3.73479717       5.85212214
C       -8.42398836       4.45464152       6.60463128
C       -8.19465477       5.80447278       6.89204256
C       -7.03457652       6.43717904       6.43416721
C       -6.10401504       5.71768057       5.68051523
C       -9.17116130       6.59081737       7.67315409
N      -10.28531746       6.07707771       8.08456335
C      -11.14648617       6.89615971       8.82224068
C      -12.51141333       6.63619797       8.79118578
C      -13.37269629       7.43682145       9.53981315
C      -12.83743527       8.46479501      10.30334902
Br     -13.95217350       9.57953172      11.33497909
C      -11.46366327       8.64965345      10.28798259
N      -10.60717687       7.88827057       9.56502258
N       -3.98752173       2.29755147       2.65571918
C       -3.15049704       1.55679448       1.88937935
H       -0.18253936       3.06940841       2.45783079
H       -1.69685389       4.46081734       3.86733475
H       -5.63892763       2.53309282       4.40103954
H       -7.68152836       2.68735059       5.63134044
H       -9.32491331       3.96143594       6.96270614
H       -6.84702959       7.48550170       6.65230475
H       -5.20499617       6.21208194       5.31920837
H       -8.89570943       7.64365809       7.87092468
H      -12.89231009       5.81959521       8.18803104
H      -14.44163896       7.24795067       9.52022446
H      -10.99128515       9.43524803      10.87065636
H       -3.63032074       0.74850830       1.34483203
C        1.78807406      -1.78807406       1.78807406
C        1.25207528      -2.87287114       2.46825976
C        2.09343464      -3.65136077       3.26175730
C        3.43813251      -3.31462227       3.35710322
N        4.28226367      -4.11646935       4.13265646
C        5.34743938      -3.57266630       4.62655798
C        6.31020506      -4.34729038       5.43613099
C        7.44051063      -3.69737374       5.94153776
C        8.37110675      -4.41302226       6.69913215
C        8.16768747      -5.77441778       6.94906485
C        7.03430801      -6.42303934       6.44857541
C        6.10467067      -5.70768720       5.68985296
C        9.14420918      -6.55615840       7.73476519
N       10.23565570      -6.02639663       8.18490619
C       11.09871735      -6.84252450       8.92364471
C       12.45733117      -6.54982129       8.93164461
C       13.31980403      -7.34776250       9.68176435
C       12.79165798      -8.40616889      10.40775243
Br      13.90835314      -9.51890142      11.43942975
C       11.42348630      -8.62290027      10.35491274
N       10.56614918      -7.86468340       9.62963744
N        3.97812767      -2.26639470       2.69627001
C        3.14176008      -1.52728760       1.92762318
H        0.19858057      -3.12263775       2.38856024
H        1.71239918      -4.51158897       3.80101783
H        5.59317799      -2.50500529       4.47487671
H        7.60936797      -2.64074703       5.75010440
H        9.25119430      -3.90751773       7.09034337
H        6.86701184      -7.48044307       6.63738113
H        5.22659308      -6.21426402       5.29542939
H        8.88964654      -7.61965637       7.90098929
H       12.83252144      -5.71016811       8.35724679
H       14.38404591      -7.13335599       9.69241217
H       10.95660114      -9.43322311      10.90736527
H        3.61464159      -0.69503017       1.41398931
C       -0.00445707       0.01189536      -1.78238275
H       -0.66409135       0.67374010      -2.43557963
H        0.65740317      -0.63156657      -2.45157240
C       -0.90989263      -0.90692880      -0.91072765
C        0.90977584       0.90977584      -0.90977584
C       -0.00465871       1.77757030       0.00794375
H       -0.66225468       2.44313916      -0.64384735
H        0.64322798       2.43503045       0.67728295
C       -1.78241447       0.00034974      -0.00472694
H       -2.45427497      -0.65498947       0.64260836
H       -2.43311707       0.67328779      -0.65473579
C       -0.91132561       0.90220522       0.91563759
C       -0.01476271      -0.02253852       1.78660255
H       -0.67934791      -0.69751639       2.42135241
H        0.63392994       0.61504881       2.47327442
C        0.01484550      -1.77751727      -0.01636693
H        0.67870853      -2.42144646      -0.68295456
H       -0.62264859      -2.45592969       0.64226336
C        1.78714474       0.01002794       0.00389507
H        2.44202412       0.67113390       0.66197326
H        2.45385902      -0.65136977      -0.64189061
C        0.91606151      -0.90478549       0.90901405
