189
Properties=species:S:1:pos:R:3 pbc="F F F"
C        0.00000000       0.00000000       0.00000000
C        6.73018177       7.04167925      -7.30260609
C        5.82290700       6.42396957      -6.28083178
C        6.18234471       5.24093818      -5.63276665
C        5.31469890       4.64731651      -4.70896298
C        4.06006038       5.20741984      -4.40505102
C        3.70788112       6.38850718      -5.08252815
C        4.57321345       6.98626634      -6.00859214
C        3.15722470       4.55144212      -3.43394943
N        3.28428376       3.20644740      -3.33366277
C        2.49038836       2.51212358      -2.50662202
C        2.66359638       1.13476748      -2.46328460
C        1.87767629       0.31173315      -1.65479156
C        0.88102061       0.88102061      -0.88102061
C        0.68150962       2.25970949      -0.90722395
C        1.50084111       3.10945025      -1.70186782
C        1.41578508       4.52298806      -1.78154239
C        2.23848002       5.23853470      -2.66025242
C        0.48543181       5.35410352      -0.97638628
O       -0.03077911       6.38202937      -1.38800340
O        0.37856558       4.86313472       0.28058640
C       -0.35194034       5.69409702       1.18525578
C        0.50924724       6.84637715       1.68541358
O        1.73664169       6.84446137       1.59490087
C       -0.17320694       8.02257232       2.28955252
C        0.49996277       9.25178002       2.28207330
C       -0.10983416      10.39231669       2.80767065
C       -1.38898292      10.30060327       3.35185753
Br      -2.22198248      11.84503314       4.05339945
C       -2.06023485       9.07815137       3.38196025
C       -1.45331578       7.93549641       2.85093423
H        7.77616232       6.78170155      -7.10845449
H        6.65697978       8.13395755      -7.27724924
H        6.46112766       6.69020709      -8.30352561
H        7.13842567       4.76587357      -5.84048886
H        5.62715234       3.72518164      -4.22046026
H        2.73857650       6.85459410      -4.91987392
H        4.25771808       7.89277599      -6.52093403
H        3.43811799       0.68540132      -3.08250567
H        2.05157968      -0.76070740      -1.64819537
H       -0.12185740       2.67069555      -0.30285509
H        2.16656007       6.32114485      -2.71023371
H       -0.62853353       5.07241092       2.04306643
H       -1.27008985       6.05765963       0.71096741
H        1.49851752       9.32710864       1.85376491
H        0.41955196      11.34134563       2.78273286
H       -3.05508619       9.00611276       3.81537339
H       -1.99431061       6.99469448       2.89768644
C       -7.07979218      -6.71473482      -7.27994011
C       -5.99083988      -5.99845199      -6.53841649
C       -6.05068031      -5.85416085      -5.15120837
C       -5.05200722      -5.15068007      -4.46829110
C       -3.96601033      -4.56319655      -5.14332436
C       -3.93370971      -4.70279649      -6.54241024
C       -4.93160454      -5.40595612      -7.23051127
C       -2.93128720      -3.81386422      -4.39746483
N       -3.34769470      -3.22703704      -3.24966220
C       -2.49620597      -2.49683967      -2.51608831
C       -2.99215825      -1.91080653      -1.35868368
C       -2.20033728      -1.11223584      -0.53162788
C       -0.88102061      -0.88102061      -0.88102061
C       -0.35717337      -1.45259663      -2.03867307
C       -1.14750310      -2.29600706      -2.86864902
C       -0.71560679      -2.95889493      -4.04581381
C       -1.61622129      -3.70658292      -4.81446293
C        0.67604690      -2.92941728      -4.56255123
O        0.95562095      -2.94312859      -5.75174603
O        1.56212043      -2.98268473      -3.54054959
C        2.92498139      -3.14132283      -3.94055947
C        3.22294782      -4.59028705      -4.30287159
O        2.49598004      -5.52226915      -3.95991308
C        4.43429999      -4.87549213      -5.11862071
C        4.45933023      -6.05699731      -5.87200241
C        5.55901580      -6.35514964      -6.67867805
C        6.63937189      -5.47669209      -6.72244262
Br       8.12438103      -5.87150683      -7.82252541
C        6.63319013      -4.30748197      -5.96166443
C        5.53011489      -4.00421943      -5.15714185
H       -7.56878372      -7.45716242      -6.64037222
H       -6.67395099      -7.24871208      -8.14552349
H       -7.83202576      -5.99835509      -7.62447952
H       -6.87486786      -6.28366235      -4.58625789
H       -5.12893151      -5.05822055      -3.38564219
H       -3.14062568      -4.24382666      -7.12859219
H       -4.87669772      -5.48011735      -8.31461304
H       -4.03366905      -2.08108424      -1.09127170
H       -2.62861619      -0.67790622       0.36745476
H        0.67591468      -1.23450458      -2.29310334
H       -1.27316782      -4.21247628      -5.71229453
H        3.54740592      -2.86502892      -3.08318796
H        3.15909964      -2.46540995      -4.77029206
H        3.61440862      -6.74364042      -5.84262945
H        5.55816916      -7.26882862      -7.26750527
H        7.48117886      -3.62711878      -5.98971327
H        5.55686650      -3.09276525      -4.56679869
C       -7.29064887       6.72122602       7.06259222
C       -6.25862598       5.82885462       6.44022776
C       -5.66732150       6.16700716       5.22172087
C       -4.73374932       5.31158980       4.62563927
C       -4.36337195       4.09042184       5.21873745
C       -4.98438931       3.75838901       6.43613813
C       -5.91998394       4.61156897       7.03651901
C       -3.38349397       3.19923726       4.55988501
N       -3.33639270       3.27960947       3.20839176
C       -2.50581946       2.49061513       2.51269937
C       -2.51847328       2.61382275       1.12935243
C       -1.71134376       1.82733054       0.30552671
C       -0.88102061       0.88102061       0.88102061
C       -0.85022766       0.73221045       2.26600495
C       -1.64381223       1.55356195       3.11478500
C       -1.66943195       1.51843108       4.53245251
C       -2.55191599       2.33512107       5.25023008
C       -0.80083070       0.64921876       5.36587215
O       -1.15573407       0.15721730       6.42630229
O        0.44080223       0.56935486       4.83256126
C        1.40133083      -0.09670888       5.65494062
C        1.91012080       0.82422948       6.75610214
O        1.77392364       2.04665583       6.71347000
C        2.58113305       0.20822167       7.93272424
C        2.59273611       0.92602490       9.13638069
C        3.18132362       0.37842674      10.27770876
C        3.76915194      -0.88287614      10.21179091
Br       4.55627456      -1.63200684      11.75793261
C        3.78031329      -1.59769971       9.01396927
C        3.18633553      -1.05324951       7.87083143
H       -7.14507355       7.76309138       6.75815344
H       -7.22336029       6.68973511       8.15509117
H       -8.29282681       6.40347942       6.75855414
H       -5.92745792       7.09664202       4.72068817
H       -4.29067038       5.60681100       3.67531286
H       -4.76909021       2.81359470       6.93035961
H       -6.38731805       4.31187129       7.97223875
H       -3.18186829       3.34831694       0.67583976
H       -1.74976198       1.96127495      -0.77196927
H       -0.20196881      -0.03305420       2.68277863
H       -2.56025965       2.30184384       6.33583515
H        2.24596563      -0.36528233       5.01205892
H        0.97495191      -1.01711797       6.06867225
H        2.13049826       1.91066203       9.19169747
H        3.17078451       0.94157152      11.20737772
H        4.24762923      -2.57833243       8.96161484
H        3.21938794      -1.62689722       6.94898260
C        6.81235221      -6.91134664       7.35076826
C        5.81865038      -6.30109996       6.40795803
C        6.23122174      -5.40003577       5.42479204
C        5.29492992      -4.80309416       4.57295431
C        3.91870440      -5.07812597       4.67570088
C        3.52079998      -5.97332616       5.68479030
C        4.45464679      -6.57315436       6.54027077
C        2.94957765      -4.42267325       3.77036534
N        3.31219928      -3.20074139       3.31145327
C        2.49015247      -2.50774520       2.51123628
C        2.91725892      -1.25545527       2.08893427
C        2.13303759      -0.43887351       1.27228991
C        0.88102061      -0.88102061       0.88102061
C        0.42442280      -2.13135817       1.29266208
C        1.23148952      -2.98440151       2.09626816
C        0.88982603      -4.28592779       2.54456171
C        1.74793781      -4.99599844       3.39333089
C       -0.35937715      -4.99899460       2.17630417
O       -0.94911470      -5.76071313       2.92765522
O       -0.67942613      -4.75710430       0.88343572
C       -1.76437573      -5.54013962       0.38113701
C       -1.30386145      -6.94781170       0.02626056
O       -0.11819992      -7.23703814      -0.13263604
C       -2.33630009      -8.01014461      -0.11403166
C       -1.94134546      -9.34236155       0.06865340
C       -2.87810017     -10.37359320      -0.02068115
C       -4.20838582     -10.07289765      -0.30474901
Br      -5.48117954     -11.46546185      -0.41463110
C       -4.60856422      -8.75206217      -0.50754168
C       -3.67274697      -7.71701982      -0.41302646
H        7.80584854      -6.96710179       6.89336804
H        6.51937177      -7.93247797       7.61633682
H        6.87945760      -6.31162264       8.26378012
H        7.28354272      -5.14950536       5.31174003
H        5.65128278      -4.10556176       3.81594971
H        2.46908798      -6.20305959       5.84089695
H        4.10452332      -7.25038004       7.31652475
H        3.89612067      -0.90169857       2.40820575
H        2.50940302       0.53175779       0.96142241
H       -0.57038523      -2.43854708       0.98353138
H        1.47706405      -5.99331018       3.72756440
H       -2.11867092      -5.05231168      -0.53282981
H       -2.58686928      -5.55895643       1.10451522
H       -0.90273400      -9.57993752       0.29465773
H       -2.55919976     -11.40077127       0.13659322
H       -5.64560784      -8.51955011      -0.73828908
H       -4.00977128      -6.69904987      -0.58658116
