161
Properties=species:S:1:pos:R:3 pbc="F F F"
C        0.00000000       0.00000000       0.00000000
O        4.22143607       8.30984283      -0.88180238
C        4.18359144       7.08646328      -1.02238289
N        2.97776432       6.46149125      -1.24484161
N        2.87801076       5.12715422      -1.45120485
C        1.71795351       4.55088035      -1.33539006
C        0.43973575       5.27552898      -0.97216061
C        1.66906972       3.07080453      -1.52031144
C        2.52070021       2.47921512      -2.46400104
C        2.53982902       1.09247156      -2.62174076
C        1.71754899       0.29183410      -1.83033828
C        0.88221401       0.88221401      -0.88221401
C        0.85305727       2.26789160      -0.71850620
C        5.43551405       6.21892198      -0.95005192
C        6.11727331       6.28145355       0.40888927
C        7.14792855       7.22262463       0.56205941
C        7.82461107       7.34338974       1.76759954
C        7.47463243       6.53374799       2.84797961
Br       8.49006798       6.79109331       4.44363417
C        6.42727369       5.58315692       2.75084319
C        6.03012369       4.75264914       3.83112634
C        4.99405793       3.82679999       3.71483170
C        4.32899833       3.69873330       2.50984568
C        4.70286908       4.49699169       1.42866568
C        5.74015742       5.45535397       1.51022156
H        2.15997491       7.05831935      -1.23025206
H        0.53344425       5.68571815       0.03778985
H       -0.43356778       4.62267501      -1.00954990
H        0.26709984       6.09107408      -1.68042599
H        3.17699083       3.09484228      -3.07583444
H        3.20282112       0.63791351      -3.35426876
H        1.74317997      -0.78838068      -1.95238565
H        0.22171830       2.70385632       0.05013645
H        6.11666677       6.59082317      -1.72658073
H        5.25621963       5.17900173      -1.23289120
H        7.42468857       7.87508355      -0.26430888
H        8.62202777       8.07694009       1.85610910
H        6.52801626       4.81714255       4.79532142
H        4.71552151       3.21008434       4.56463223
H        3.52228023       2.97898540       2.40136476
H        4.15945962       4.34575403       0.50361983
O       -2.04149715      -2.61761570      -8.75396843
C       -1.88493484      -2.85272718      -7.55477559
N       -2.17788428      -1.88175965      -6.62445324
N       -2.06885046      -2.09551245      -5.29200692
C       -2.04326576      -1.07635467      -4.48460350
C       -2.12176817       0.36718622      -4.93284340
C       -1.86856072      -1.36146334      -3.03016162
C       -2.45672168      -2.51494503      -2.49224966
C       -2.26570866      -2.84001374      -1.14831893
C       -1.47803950      -2.02105178      -0.34063010
C       -0.88221401      -0.88221401      -0.88221401
C       -1.06923719      -0.54636928      -2.22384861
C       -1.36279426      -4.19302409      -7.04866959
C        0.04562742      -4.49842492      -7.53704008
C        0.16190654      -5.25852071      -8.71187960
C        1.40938284      -5.58512467      -9.22465944
C        2.56535809      -5.14653306      -8.57922584
Br       4.21600255      -5.67378991      -9.37973975
C        2.50139286      -4.35875892      -7.40222135
C        3.65321604      -3.87939709      -6.72546544
C        3.56721170      -3.10222440      -5.57101353
C        2.32428834      -2.78794663      -5.05422766
C        1.17494750      -3.25164542      -5.69449717
C        1.22026426      -4.03213221      -6.87342188
H       -2.46751253      -0.98537002      -6.99566377
H       -1.24346096       0.60315270      -5.54106428
H       -2.16764732       1.06171172      -4.09272153
H       -3.02669924       0.51695181      -5.52885249
H       -3.06086900      -3.16829842      -3.11850013
H       -2.72302151      -3.73631733      -0.73566455
H       -1.32638624      -2.28426472       0.70346603
H       -0.56694810       0.32503152      -2.63352160
H       -2.05939277      -4.95725394      -7.41742396
H       -1.41344712      -4.29276396      -5.96190147
H       -0.72859552      -5.59618650      -9.23929898
H        1.46953083      -6.17946553     -10.13292406
H        4.65036825      -4.10565677      -7.09454887
H        4.47094890      -2.75025059      -5.08167193
H        2.24000081      -2.18694921      -4.15295247
H        0.22728581      -2.98940059      -5.23947904
O       -8.11121353       4.62639586       0.67547190
C       -7.20863266       3.93451597       1.14928898
N       -5.92149311       4.07869720       0.68390686
N       -4.88114309       3.37957127       1.19565546
C       -3.76971523       3.31057080       0.52393789
C       -3.54712121       3.96356447      -0.82326034
C       -2.67077833       2.48463178       1.10477557
C       -2.51141154       2.45505907       2.49744576
C       -1.52940207       1.64902748       3.07561178
C       -0.71153548       0.86187372       2.26631217
C       -0.88221401       0.88221401       0.88221401
C       -1.85893045       1.68683567       0.29368896
C       -7.46208714       2.90098419       2.24141661
C       -8.40313353       1.79165236       1.79505170
C       -9.76742370       1.95966440       2.08140566
C      -10.69359720       0.99430313       1.71250093
C      -10.27473624      -0.15238828       1.03805285
Br     -11.64517296      -1.40629190       0.59864606
C       -8.91179373      -0.35905661       0.70685029
C       -8.44788114      -1.50361047       0.00737582
C       -7.10274650      -1.68484887      -0.31187140
C       -6.17939825      -0.72851100       0.06699870
C       -6.60588371       0.40331987       0.76199151
C       -7.96232876       0.62900834       1.09395272
H       -5.79699667       4.73152381      -0.07997416
H       -4.22351223       3.51454820      -1.55668788
H       -2.52014298       3.85301488      -1.17450073
H       -3.75222779       5.03547330      -0.74910118
H       -3.15489291       3.05456131       3.13821333
H       -1.41011638       1.62847582       4.15641119
H        0.04611682       0.22987346       2.72342830
H       -1.99831709       1.66015168      -0.78303059
H       -7.90140007       3.44469976       3.08797084
H       -6.54423124       2.47282843       2.65105289
H      -10.11626761       2.85542608       2.59238730
H      -11.74279824       1.14818018       1.95188035
H       -9.13850931      -2.28226370      -0.30640822
H       -6.78482704      -2.57256250      -0.85129093
H       -5.12683653      -0.85669771      -0.17023794
H       -5.83961288       1.11382256       1.04815837
O        0.19102656      -6.93018968       6.29186504
C        0.64499143      -6.33271756       5.31472862
N        0.49695185      -4.96776718       5.21937814
N        1.01244404      -4.25083848       4.19308730
C        0.58026500      -3.04270558       3.98125333
C       -0.48651862      -2.36217946       4.81176451
C        1.14087284      -2.31297017       2.80634268
C        2.48397671      -2.51911156       2.46082811
C        3.02379035      -1.89546578       1.33478520
C        2.22178089      -1.07364350       0.54429698
C        0.88221401      -0.88221401       0.88221401
C        0.33328909      -1.49851609       2.00764990
C        1.36812924      -7.05392761       4.18243110
C        0.47831620      -8.05342616       3.45809523
C        0.52017839      -9.38412590       3.90418947
C       -0.25701708     -10.36040307       3.29701527
C       -1.10143929     -10.02202856       2.23981154
Br      -2.10662289     -11.45869297       1.48545703
C       -1.19578779      -8.68899391       1.76638129
C       -2.05439920      -8.30122038       0.70482531
C       -2.13456011      -6.98300005       0.25758627
C       -1.35076556      -6.01370800       0.85494351
C       -0.49215341      -6.36744239       1.89590612
C       -0.39099660      -7.69072788       2.38555854
H       -0.03702060      -4.52725692       5.95831000
H       -1.42896987      -2.90718153       4.70316089
H       -0.64250675      -1.32310212       4.51806176
H       -0.18684740      -2.36165918       5.86378813
H        3.11379860      -3.17066626       3.06320269
H        4.06585324      -2.05912679       1.07002336
H        2.64616945      -0.59728016      -0.33626466
H       -0.72082371      -1.36432507       2.23193682
H        2.21941574      -7.57513870       4.63951623
H        1.83085757      -6.37329105       3.46396395
H        1.16047110      -9.66494504       4.73866485
H       -0.20045866     -11.38369068       3.65962674
H       -2.68541273      -9.03116118       0.20408894
H       -2.80591150      -6.72269225      -0.55580714
H       -1.39814765      -4.98266245       0.51538607
H        0.11058563      -5.57247690       2.31853129
