169
Properties=species:S:1:pos:R:3 pbc="F F F"
C        0.00000000       0.00000000       0.00000000
O        4.22143607       8.30984283      -0.88180238
C        4.18359144       7.08646328      -1.02238289
N        2.97776432       6.46149125      -1.24484161
N        2.87801076       5.12715422      -1.45120485
C        1.71795351       4.55088035      -1.33539006
C        0.43973575       5.27552898      -0.97216061
C        1.66906972       3.07080453      -1.52031144
C        2.52070021       2.47921512      -2.46400104
C        2.53982902       1.09247156      -2.62174076
C        1.71754899       0.29183410      -1.83033828
C        0.88221401       0.88221401      -0.88221401
C        0.85305727       2.26789160      -0.71850620
C        5.43551405       6.21892198      -0.95005192
C        6.11727331       6.28145355       0.40888927
C        7.14792855       7.22262463       0.56205941
C        7.82461107       7.34338974       1.76759954
C        7.47463243       6.53374799       2.84797961
C        6.42727369       5.58315692       2.75084319
C        6.03012369       4.75264914       3.83112634
C        4.99405793       3.82679999       3.71483170
C        4.32899833       3.69873330       2.50984568
C        4.70286908       4.49699169       1.42866568
C        5.74015742       5.45535397       1.51022156
H        2.15997491       7.05831935      -1.23025206
H        0.53344425       5.68571815       0.03778985
H       -0.43356778       4.62267501      -1.00954990
H        0.26709984       6.09107408      -1.68042599
H        3.17699083       3.09484228      -3.07583444
H        3.20282112       0.63791351      -3.35426876
H        1.74317997      -0.78838068      -1.95238565
H        0.22171830       2.70385632       0.05013645
H        6.11666677       6.59082317      -1.72658073
H        5.25621963       5.17900173      -1.23289120
H        7.42468857       7.87508355      -0.26430888
H        8.62202777       8.07694009       1.85610910
H        6.52801626       4.81714255       4.79532142
H        4.71552151       3.21008434       4.56463223
H        3.52228023       2.97898540       2.40136476
H        4.15945962       4.34575403       0.50361983
C        8.24068484       6.72789128       4.05175371
C        8.88225373       6.89048629       5.05991453
Br       9.91961637       7.15338866       6.69002529
O       -2.99443711      -1.71569511      -8.70294907
C       -2.62606342      -2.08090969      -7.58546450
N       -2.89900417      -1.29836856      -6.48672444
N       -2.55957024      -1.66762331      -5.22917628
C       -2.54582845      -0.77274990      -4.28564557
C       -2.88282522       0.68821123      -4.49281136
C       -2.11391880      -1.21798321      -2.92828367
C       -2.45445029      -2.50902579      -2.50044029
C       -2.01821955      -2.97623685      -1.25958493
C       -1.23162936      -2.16057886      -0.44751315
C       -0.88221401      -0.88221401      -0.88221401
C       -1.31561437      -0.40414327      -2.11969744
C       -1.85945421      -3.38041279      -7.36462094
C       -0.51467235      -3.39874896      -8.07641627
C       -0.48018736      -3.96946916      -9.35883725
C        0.70605878      -4.03001214     -10.07644791
C        1.87885790      -3.50883711      -9.53042159
C        1.89226297      -2.90327819      -8.24857219
C        3.06039390      -2.34696891      -7.66507148
C        3.05016468      -1.75218083      -6.40401007
C        1.87062549      -1.70354109      -5.68497035
C        0.70844371      -2.24896934      -6.23066946
C        0.67551672      -2.84999727      -7.51080928
H       -3.35838839      -0.41578659      -6.67437133
H       -2.14730614       1.13460226      -5.16866867
H       -2.89100564       1.24989584      -3.55754733
H       -3.88021946       0.77512145      -4.93350190
H       -3.05546313      -3.15842707      -3.13377735
H       -2.28392465      -3.97876895      -0.93230980
H       -0.88812033      -2.53350107       0.51443646
H       -1.00210796       0.58050467      -2.45383488
H       -2.49681272      -4.18670502      -7.75055293
H       -1.72918123      -3.62993615      -6.30899519
H       -1.38830919      -4.36675150      -9.80902030
H        0.70447967      -4.48236952     -11.06496891
H        4.01024435      -2.36668858      -8.19339316
H        3.96351084      -1.33380953      -5.99067492
H        1.84661191      -1.24744036      -4.69907243
H       -0.18453710      -2.19781600      -5.61924071
C        3.05839270      -3.62732249     -10.34789261
C        4.04625310      -3.72655400     -11.03252459
Br       5.64353981      -3.88700296     -12.13951659
O       -7.71770615       5.28386784       0.41150729
C       -6.92476193       4.47372150       0.89395418
N       -5.59248317       4.53696815       0.55464585
N       -4.66698659       3.70365918       1.08572406
C       -3.50797788       3.58916458       0.50708145
C       -3.10704535       4.33050283      -0.75012284
C       -2.54149984       2.61876620       1.09991965
C       -2.51489183       2.45668785       2.49233669
C       -1.66248254       1.51709593       3.07446286
C       -0.84280764       0.72897352       2.26794021
C       -0.88221401       0.88221401       0.88221401
C       -1.72853209       1.82079445       0.29012853
C       -7.36492234       3.37932123       1.86024437
C       -8.35115820       2.40373884       1.23494055
C       -9.71694819       2.67252840       1.41901718
C      -10.68340707       1.83183838       0.88515581
C      -10.30253023       0.71255516       0.14531541
C       -8.93719798       0.40933916      -0.08694973
C       -8.50912673      -0.70987615      -0.84760409
C       -7.16041457      -0.98722671      -1.06716163
C       -6.19844602      -0.15607125      -0.52448882
C       -6.59004885       0.94743475       0.23371149
C       -7.94739404       1.26885438       0.46904141
H       -5.34291503       5.23781167      -0.13218038
H       -3.74819253       4.00981861      -1.57663859
H       -2.06502167       4.15546082      -1.02182536
H       -3.22659301       5.40664918      -0.59464228
H       -3.16184748       3.05676783       3.12905225
H       -1.64598804       1.39409951       4.15491583
H       -0.18702622      -0.00692827       2.72708699
H       -1.76934795       1.89844500      -0.79235477
H       -7.83311078       3.88771209       2.71324780
H       -6.52853820       2.83483541       2.30473896
H      -10.03447823       3.55022920       1.97937357
H      -11.73344647       2.06139968       1.04801262
H       -9.23119189      -1.39182118      -1.28953332
H       -6.87024861      -1.85166971      -1.65760529
H       -5.14309466      -0.36063820      -0.68255559
H       -5.79615462       1.55710156       0.64833764
C      -11.37765316      -0.10207605      -0.35875471
C      -12.27806861      -0.78432969      -0.78091343
Br     -13.73396424      -1.88747612      -1.46350838
O        0.21166954      -7.08451668       6.11689507
C        0.67457009      -6.45049367       5.16737386
N        0.49352305      -5.08771843       5.10285570
N        1.01604814      -4.33147782       4.10884387
C        0.55808525      -3.12959214       3.91654653
C       -0.54677091      -2.49818934       4.73600691
C        1.12913264      -2.35554097       2.77551208
C        2.48547829      -2.51848589       2.45995220
C        3.03726674      -1.85225354       1.36452105
C        2.23444940      -1.03074420       0.57452777
C        0.88221401      -0.88221401       0.88221401
C        0.32114457      -1.54132282       1.97698769
C        1.44472111      -7.12341593       4.03635091
C        0.59988143      -8.12597309       3.26398306
C        0.66503316      -9.46634189       3.67711872
C       -0.07083952     -10.44588567       3.02535511
C       -0.89669424     -10.10163908       1.95545597
C       -1.01366499      -8.75955681       1.51369559
C       -1.85487478      -8.36619047       0.44033080
C       -1.95794609      -7.03923451       0.02473781
C       -1.21504789      -6.06624834       0.66668550
C       -0.37420091      -6.42506205       1.72033395
C       -0.25109155      -7.75765111       2.17873027
H       -0.07030439      -4.68027469       5.83857602
H       -1.47166077      -3.06391032       4.58912299
H       -0.72224892      -1.45611123       4.46479482
H       -0.27399592      -2.51744789       5.79514794
H        3.11656200      -3.16931190       3.06179365
H        4.08961638      -1.98248374       1.12290327
H        2.66849549      -0.52101359      -0.28232414
H       -0.74145340      -1.43979540       2.17709617
H        2.29741613      -7.63458569       4.50206886
H        1.90765373      -6.41279318       3.34766565
H        1.29104483      -9.75245223       4.52058392
H        0.00311565     -11.47649993       3.36324318
H       -2.45377298      -9.09862280      -0.09501243
H       -2.61499686      -6.77495843      -0.79898795
H       -1.28061947      -5.02824851       0.35227184
H        0.19673047      -5.62633226       2.17853108
C       -1.61186901     -11.18917768       1.33951373
C       -2.21082788     -12.09999126       0.82366211
Br      -3.17929371     -13.57269978      -0.01042633
