182
Properties=species:S:1:pos:R:3 pbc="F F F"
O        5.13134009       9.21974686      -1.79170641
C        5.09349547       7.99636730      -1.93228692
N        3.88766834       7.37139527      -2.15474563
N        3.78791478       6.03705825      -2.36110887
C        2.62785754       5.46078437      -2.24529408
C        1.34963977       6.18543301      -1.88206464
C        2.57897374       3.98070856      -2.43021546
C        3.43060423       3.38911915      -3.37390506
C        3.44973305       2.00237558      -3.53164478
C        2.62745301       1.20173812      -2.74024231
C        1.79211804       1.79211804      -1.79211804
C        1.76296130       3.17779563      -1.62841023
C        6.34541807       7.12882601      -1.85995594
C        7.02717733       7.19135757      -0.50101475
C        8.05783257       8.13252866      -0.34784461
C        8.73451509       8.25329376       0.85769551
C        8.38453645       7.44365201       1.93807559
Br       9.39997201       7.70099733       3.53373015
C        7.33717771       6.49306095       1.84093917
C        6.94002771       5.66255317       2.92122232
C        5.90396195       4.73670401       2.80492767
C        5.23890235       4.60863732       1.59994165
C        5.61277311       5.40689572       0.51876166
C        6.65006144       6.36525799       0.60031754
H        3.06987893       7.96822337      -2.14015609
H        1.44334827       6.59562218      -0.87211418
H        0.47633625       5.53257903      -1.91945392
H        1.17700386       7.00097810      -2.59033002
H        4.08689486       4.00474630      -3.98573847
H        4.11272514       1.54781754      -4.26417278
H        2.65308400       0.12152334      -2.86228968
H        1.13162233       3.61376034      -0.85976758
H        7.02657079       7.50072720      -2.63648476
H        6.16612365       6.08890575      -2.14279523
H        8.33459259       8.78498757      -1.17421290
H        9.53193180       8.98684411       0.94620507
H        7.43792028       5.72704657       3.88541739
H        5.62542554       4.11998836       3.65472821
H        4.43218425       3.88888943       1.49146073
H        5.06936364       5.25565805      -0.40628420
O       -3.49284716      -2.98326362      -9.66668257
C       -3.21346341      -3.29949804      -8.50918824
N       -3.50100175      -2.43594024      -7.47686726
N       -3.25885901      -2.74585281      -6.18137008
C       -3.24476586      -1.79666135      -5.29250879
C       -3.47812813      -0.33416924      -5.60484004
C       -2.92099275      -2.18148981      -3.88741520
C       -3.36505151      -3.42157681      -3.40700012
C       -3.03154789      -3.83576055      -2.11644497
C       -2.24464381      -3.01863171      -1.30615793
C       -1.79211804      -1.79211804      -1.79211804
C       -2.12232624      -1.36707014      -3.07977077
C       -2.54285255      -4.62528638      -8.16606108
C       -1.16261690      -4.76588472      -8.79104803
C       -1.08887654      -5.41586150     -10.03346780
C        0.13112475      -5.58964211     -10.67159598
C        1.30012158      -5.10487464     -10.08535982
Br       2.91137989      -5.41942425     -11.05919483
C        1.27628607      -4.42300907      -8.84257648
C        2.44062230      -3.90064490      -8.22133597
C        2.39378231      -3.22942064      -7.00009996
C        1.17964435      -3.06780240      -6.35943997
C        0.01970750      -3.57733346      -6.94328120
C        0.02427231      -4.25344191      -8.18583230
H       -3.89321557      -1.54140299      -7.74363983
H       -2.67830484       0.02598027      -6.25876006
H       -3.50600263       0.28380297      -4.70616954
H       -4.44088082      -0.21674875      -6.11068242
H       -3.96717467      -4.07280229      -4.03740267
H       -3.37735163      -4.79895667      -1.74840716
H       -1.98145462      -3.35071707      -0.30472532
H       -1.72960040      -0.42490144      -3.45064841
H       -3.20529948      -5.41541857      -8.54306470
H       -2.48995193      -4.81620862      -7.09166408
H       -1.99207158      -5.78666898     -10.51505250
H        0.15913752      -6.10140762     -11.63030074
H        3.41658462      -4.00827772      -8.68785636
H        3.30563271      -2.84018348      -6.55613491
H        1.12651565      -2.55097903      -5.40514957
H       -0.90248609      -3.43655239      -6.39226741
O       -4.14218097       9.56257956       2.43803282
C       -4.27804324       8.33851182       2.40559462
N       -3.20415434       7.52445867       2.68519624
N       -3.30252250       6.17436983       2.70918957
C       -2.21904322       5.45695551       2.65793726
C       -0.82155113       6.03074990       2.56483639
C       -2.38249650       3.97374842       2.63365283
C       -3.42766942       3.39696104       3.36899798
C       -3.64233946       2.01852115       3.32289279
C       -2.82177636       1.21363042       2.53402666
C       -1.79211804       1.79211804       1.79211804
C       -1.56688145       3.16882124       1.83346446
C       -5.60520538       7.67509611       2.05389853
C       -6.07212522       8.00394193       0.64348251
C       -6.94444171       9.09468721       0.49907691
C       -7.42106663       9.46080753      -0.75176082
C       -7.02394013       8.75082296      -1.88465021
Br      -7.76021121       9.34829550      -3.54126752
C       -6.12837789       7.65544004      -1.79451844
C       -5.68756137       6.91820282      -2.92440563
C       -4.80273768       5.84633375      -2.81333314
C       -4.33835696       5.47477857      -1.56553750
C       -4.76047721       6.17690861      -0.43647866
C       -5.64741254       7.27653192      -0.50894256
H       -2.32459638       7.99512525       2.85853676
H       -0.71766699       6.57309500       1.62032263
H       -0.05110747       5.26006799       2.61719373
H       -0.65156531       6.71819609       3.39855059
H       -4.08267558       4.01888524       3.97581880
H       -4.45494963       1.57564364       3.89412219
H       -2.99941195       0.14152356       2.49596150
H       -0.78249951       3.60249027       1.22016047
H       -6.33866306       8.04071508       2.78440460
H       -5.59964039       6.59311013       2.20507411
H       -7.25295339       9.67161322       1.36922646
H       -8.09960173      10.30623656      -0.83326746
H       -6.03024774       7.17331377      -3.92401205
H       -4.48465968       5.30717344      -3.70114744
H       -3.65182497       4.63907263      -1.46128466
H       -4.37833798       5.83500911       0.51795880
O        2.09011467      -4.63498756       9.41769112
C        2.14772777      -4.68632341       8.18809851
N        2.40399948      -3.54184693       7.46796284
N        2.52342004      -3.54330143       6.11936043
C        2.44335353      -2.41778928       5.47279319
C        2.21480384      -1.07321151       6.12912207
C        2.52803261      -2.47784098       3.98402416
C        3.37128573      -3.42936270       3.39298001
C        3.43096731      -3.54918911       2.00359699
C        2.64092548      -2.72764672       1.20086124
C        1.79211804      -1.79211804       1.79211804
C        1.72707114      -1.66196439       3.18013161
C        1.93448246      -5.98379695       7.41592061
C        0.54183138      -6.56424894       7.61346934
C        0.38779961      -7.51865807       8.63174816
C       -0.84777760      -8.10091441       8.87697652
C       -1.95671957      -7.73009902       8.11673343
Br      -3.59313486      -8.61369427       8.54667978
C       -1.85803933      -6.75578871       7.09155011
C       -2.96527452      -6.33937343       6.30725966
C       -2.84653947      -5.37602980       5.30624797
C       -1.61277299      -4.80577864       5.05459237
C       -0.50537168      -5.20117138       5.80510746
C       -0.58735058      -6.16603299       6.83631949
H        2.48382581      -2.68806476       8.00636782
H        1.23176521      -1.06992592       6.60939348
H        2.26336325      -0.24873916       5.41626679
H        2.98758076      -0.89759816       6.88313307
H        3.98050152      -4.08520698       4.01167113
H        4.08573072      -4.28941022       1.54957452
H        2.68589816      -2.83161129       0.11938756
H        1.03301649      -0.95195545       3.62017830
H        2.68914861      -6.69159710       7.78303703
H        2.15559215      -5.89229324       6.34993925
H        1.23772625      -7.80916545       9.24690137
H       -0.93671713      -8.84107081       9.66821715
H       -3.95291080      -6.76401857       6.46844169
H       -3.71720040      -5.07981416       4.72807193
H       -1.50239295      -4.05685259       4.27515330
H        0.44022942      -4.73412192       5.55695455
C       -0.00445707       0.01189536      -1.78238275
H       -0.66409135       0.67374010      -2.43557963
H        0.65740317      -0.63156657      -2.45157240
C       -0.90989263      -0.90692880      -0.91072765
C        0.90977584       0.90977584      -0.90977584
C       -0.00465871       1.77757030       0.00794375
H       -0.66225468       2.44313916      -0.64384735
H        0.64322798       2.43503045       0.67728295
C       -1.78241447       0.00034974      -0.00472694
H       -2.45427497      -0.65498947       0.64260836
H       -2.43311707       0.67328779      -0.65473579
C       -0.91132561       0.90220522       0.91563759
C       -0.01476271      -0.02253852       1.78660255
H       -0.67934791      -0.69751639       2.42135241
H        0.63392994       0.61504881       2.47327442
C        0.01484550      -1.77751727      -0.01636693
H        0.67870853      -2.42144646      -0.68295456
H       -0.62264859      -2.45592969       0.64226336
C        1.78714474       0.01002794       0.00389507
H        2.44202412       0.67113390       0.66197326
H        2.45385902      -0.65136977      -0.64189061
C        0.91606151      -0.90478549       0.90901405
