190
Properties=species:S:1:pos:R:3 pbc="F F F"
O        5.13134009       9.21974686      -1.79170641
C        5.09349547       7.99636730      -1.93228692
N        3.88766834       7.37139527      -2.15474563
N        3.78791478       6.03705825      -2.36110887
C        2.62785754       5.46078437      -2.24529408
C        1.34963977       6.18543301      -1.88206464
C        2.57897374       3.98070856      -2.43021546
C        3.43060423       3.38911915      -3.37390506
C        3.44973305       2.00237558      -3.53164478
C        2.62745301       1.20173812      -2.74024231
C        1.79211804       1.79211804      -1.79211804
C        1.76296130       3.17779563      -1.62841023
C        6.34541807       7.12882601      -1.85995594
C        7.02717733       7.19135757      -0.50101475
C        8.05783257       8.13252866      -0.34784461
C        8.73451509       8.25329376       0.85769551
C        8.38453645       7.44365201       1.93807559
C        7.33717771       6.49306095       1.84093917
C        6.94002771       5.66255317       2.92122232
C        5.90396195       4.73670401       2.80492767
C        5.23890235       4.60863732       1.59994165
C        5.61277311       5.40689572       0.51876166
C        6.65006144       6.36525799       0.60031754
H        3.06987893       7.96822337      -2.14015609
H        1.44334827       6.59562218      -0.87211418
H        0.47633625       5.53257903      -1.91945392
H        1.17700386       7.00097810      -2.59033002
H        4.08689486       4.00474630      -3.98573847
H        4.11272514       1.54781754      -4.26417278
H        2.65308400       0.12152334      -2.86228968
H        1.13162233       3.61376034      -0.85976758
H        7.02657079       7.50072720      -2.63648476
H        6.16612365       6.08890575      -2.14279523
H        8.33459259       8.78498757      -1.17421290
H        9.53193180       8.98684411       0.94620507
H        7.43792028       5.72704657       3.88541739
H        5.62542554       4.11998836       3.65472821
H        4.43218425       3.88888943       1.49146073
H        5.06936364       5.25565805      -0.40628420
C        9.15058886       7.63779530       3.14184969
C        9.79215775       7.80039031       4.15001050
Br      10.82952039       8.06329269       5.78012127
O       -2.56887029      -3.97450649      -9.59941658
C       -2.50394042      -4.13815914      -8.38005013
N       -2.78900876      -3.09062172      -7.53417876
N       -2.77833648      -3.22110245      -6.18664296
C       -2.73527657      -2.15379085      -5.44486858
C       -2.68867905      -0.74142483      -5.98703353
C       -2.67164086      -2.35127841      -3.96697849
C       -3.36829507      -3.42698215      -3.39835122
C       -3.28416274      -3.67268327      -2.02690740
C       -2.49565436      -2.85251294      -1.22126614
C       -1.79211804      -1.79211804      -1.79211804
C       -1.87169993      -1.53578291      -3.16168431
C       -2.10548879      -5.47167380      -7.75703742
C       -0.69281755      -5.89684069      -8.12989142
C       -0.55421626      -6.73968355      -9.24430603
C        0.69830018      -7.17750158      -9.65091194
C        1.83827336      -6.77006608      -8.95832016
C        1.75348262      -5.90279855      -7.83998356
C        2.89008593      -5.45240721      -7.11903728
C        2.78405407      -4.59582376      -6.02396861
C        1.53499477      -4.17029734      -5.61229546
C        0.39962306      -4.60280457      -6.29772565
C        0.46645237      -5.46177415      -7.41968011
H       -2.99411211      -2.20469687      -7.97944941
H       -1.76012159      -0.60227574      -6.54868729
H       -2.74056908       0.00929762      -5.19709775
H       -3.54237559      -0.57542487      -6.65051152
H       -3.97435023      -4.08160785      -4.02142154
H       -3.82544407      -4.50888870      -1.59038269
H       -2.42776440      -3.05422468      -0.15490794
H       -1.28748640      -0.72699719      -3.59066666
H       -2.82718252      -6.21366839      -8.12293183
H       -2.23078368      -5.49505343      -6.67198753
H       -1.43048234      -7.05537192      -9.80793880
H        0.77538137      -7.83391946     -10.51403274
H        3.89103773      -5.76497943      -7.40560777
H        3.67684622      -4.26926742      -5.49826449
H        1.43476002      -3.50620457      -4.75816840
H       -0.55502874      -4.25175022      -5.92452693
C        3.08953449      -7.28470916      -9.45135981
C        4.13746568      -7.71572274      -9.86428051
Br       5.83188179      -8.41263525     -10.53193836
O       -3.50341695       9.66586115       2.97351525
C       -3.74226603       8.46809283       2.81179083
N       -2.77570595       7.53323296       3.10487035
N       -2.99384617       6.20196531       2.99027041
C       -1.97750768       5.39099259       2.96543572
C       -0.53265926       5.83374444       3.05073372
C       -2.26720420       3.93822377       2.78446979
C       -3.42472077       3.40236298       3.36654469
C       -3.75392136       2.06030638       3.16952567
C       -2.93503166       1.25250507       2.38189671
C       -1.79211804       1.79211804       1.79211804
C       -1.45213543       3.13185403       1.98517768
C       -5.08248130       7.96869618       2.28302255
C       -5.38105117       8.46321631       0.87528219
C       -6.13650098       9.64119632       0.76050854
C       -6.45676590      10.15962413      -0.48627669
C       -6.01633236       9.51676835      -1.64298783
C       -5.23302386       8.33671146      -1.58043584
C       -4.75194802       7.66237199      -2.73296145
C       -3.97923928       6.50482647      -2.64832745
C       -3.67129836       5.98245343      -1.40615377
C       -4.13683340       6.62025945      -0.25618569
C       -4.91291492       7.80214335      -0.30005637
H       -1.87903880       7.90016972       3.39904987
H       -0.29134838       6.44426018       2.17547606
H        0.15867625       4.99096668       3.09607877
H       -0.38401622       6.42595791       3.95833785
H       -4.07799418       4.02879043       3.97059501
H       -4.65334214       1.64924474       3.62212859
H       -3.20144279       0.20991507       2.22553915
H       -0.57746579       3.54018549       1.48749897
H       -5.84788711       8.33769844       2.97819720
H       -5.18630346       6.88211961       2.32940156
H       -6.47547725      10.16662877       1.65168705
H       -7.04762206      11.07023406      -0.54528529
H       -4.97328759       8.03584518      -3.72958331
H       -3.62577080       6.01746728      -3.55255239
H       -3.07384762       5.07872221      -1.32295688
H       -3.87963932       6.16090069       0.69076587
C       -6.40743989      10.12657741      -2.88748283
C       -6.73499244      10.63729251      -3.92974739
Br      -7.26461722      11.46307562      -5.61500103
O        1.96051845      -4.84030408       9.34197082
C        2.05336668      -4.85522948       8.11355352
N        2.29687316      -3.68422128       7.43271480
N        2.45334367      -3.64423698       6.08850125
C        2.35928645      -2.50351270       5.47113684
C        2.07481992      -1.18483762       6.15747988
C        2.48655645      -2.51907039       3.98427092
C        3.37233190      -3.42993120       3.39136534
C        3.47358066      -3.50871640       2.00145634
C        2.68299690      -2.68683944       1.19959710
C        1.79211804      -1.79211804       1.79211804
C        1.68525366      -1.70312250       3.18079098
C        1.89823690      -6.13571399       7.30024912
C        0.51765686      -6.75961622       7.44227658
C        0.36273132      -7.74632690       8.42914762
C       -0.86215788      -8.36905963       8.62321159
C       -1.95981125      -8.00753407       7.84239006
C       -1.86056719      -7.00226517       6.84760151
C       -2.95714357      -6.59444799       6.04405414
C       -2.83821506      -5.60026932       5.07368404
C       -1.61461872      -4.98940041       4.87281634
C       -0.51754188      -5.37525135       5.64319769
C       -0.60053078      -6.37078998       6.64474270
H        2.33767141      -2.84413960       7.99644739
H        1.07924114      -1.22218626       6.60965722
H        2.11962858      -0.33950470       5.46923592
H        2.82128294      -1.00943209       6.93759696
H        3.98260615      -4.08600722       4.00876626
H        4.16126584      -4.21750316       1.54594646
H        2.76062849      -2.75889065       0.11737788
H        0.95954704      -1.02520997       3.62039324
H        2.66223921      -6.83258678       7.66895676
H        2.14591225      -6.00804169       6.24387069
H        1.20329079      -8.03062822       9.05987405
H       -0.95185701      -9.13347073       9.39095712
H       -3.93643159      -7.05049341       6.16548764
H       -3.70067145      -5.31188070       4.47947644
H       -1.50406855      -4.21597050       4.11771099
H        0.42093676      -4.87553064       5.43483848
C       -3.18343940      -8.71674538       8.11322850
C       -4.20822798      -9.31070984       8.34005570
Br      -5.86522444     -10.27110015       8.70681610
C       -0.00445707       0.01189536      -1.78238275
H       -0.66409135       0.67374010      -2.43557963
H        0.65740317      -0.63156657      -2.45157240
C       -0.90989263      -0.90692880      -0.91072765
C        0.90977584       0.90977584      -0.90977584
C       -0.00465871       1.77757030       0.00794375
H       -0.66225468       2.44313916      -0.64384735
H        0.64322798       2.43503045       0.67728295
C       -1.78241447       0.00034974      -0.00472694
H       -2.45427497      -0.65498947       0.64260836
H       -2.43311707       0.67328779      -0.65473579
C       -0.91132561       0.90220522       0.91563759
C       -0.01476271      -0.02253852       1.78660255
H       -0.67934791      -0.69751639       2.42135241
H        0.63392994       0.61504881       2.47327442
C        0.01484550      -1.77751727      -0.01636693
H        0.67870853      -2.42144646      -0.68295456
H       -0.62264859      -2.45592969       0.64226336
C        1.78714474       0.01002794       0.00389507
H        2.44202412       0.67113390       0.66197326
H        2.45385902      -0.65136977      -0.64189061
C        0.91606151      -0.90478549       0.90901405
