189
Properties=species:S:1:pos:R:3 pbc="F F F"
C        0.00000000       0.00000000       0.00000000
C        0.88161310       0.88161310      -0.88161310
C        0.61913909       2.24707574      -0.97681392
C        1.42721803       3.05294187      -1.78352917
C        2.49321274       2.49360578      -2.50316725
C        2.75177886       1.11969949      -2.39403087
C        1.94457857       0.31487525      -1.58336823
C        3.31914809       3.40088611      -3.34385564
O        3.31888962       4.61364677      -3.21757013
O        4.02464953       2.65272720      -4.27758079
C        4.92244425       3.12551775      -5.27387184
C        5.29679138       4.46461347      -5.38531395
C        6.21254185       4.84872785      -6.36941744
C        6.75103011       3.89605772      -7.23389780
Br       8.00728445       4.42595510      -8.54338634
C        6.37456790       2.55840317      -7.13824669
C        5.45453535       2.17019933      -6.15746071
C        5.03988629       0.75424660      -6.06017800
N        5.46106183      -0.14840332      -6.89102533
N        4.96176410      -1.42083058      -6.75090287
C        3.65892223      -1.73202810      -6.36974710
O        2.78594251      -0.92640735      -6.05964002
C        3.32264324      -3.18369530      -6.37048557
C        1.98372509      -3.55937058      -6.55721775
C        1.61970220      -4.90758693      -6.53630283
C        2.59033816      -5.88267622      -6.32217048
O        2.16566043      -7.18578347      -6.32518145
C        3.26689207      -8.09685593      -6.41786250
C        4.38201011      -7.69063252      -5.46852612
O        4.91824990      -6.41334551      -5.83520083
C        3.92001156      -5.50990236      -6.09838600
C        4.29226712      -4.16613307      -6.13316455
H       -0.20823476       2.69353454      -0.43100861
H        1.21782514       4.11949543      -1.85278904
H        3.57703360       0.65573035      -2.92719667
H        2.15265182      -0.74982909      -1.50968370
H        4.90203430       5.23180345      -4.72728031
H        6.50057789       5.89450549      -6.44861523
H        6.79333978       1.82127953      -7.81897465
H        4.36691491       0.50246471      -5.22695515
H        5.48132235      -2.11220259      -7.28323957
H        1.21963448      -2.80083957      -6.72038297
H        0.58266353      -5.19455350      -6.68952127
H        2.89517658      -9.09347951      -6.16045410
H        3.61362502      -8.11866603      -7.45839846
H        5.19917648      -8.41741300      -5.51094309
H        4.02727228      -7.63466087      -4.43179010
H        5.32706140      -3.90661029      -5.92999717
C       -0.88161310      -0.88161310      -0.88161310
C       -0.31814410      -1.95378817      -1.57109648
C       -1.12628858      -2.76029070      -2.37710980
C       -2.49700402      -2.49086147      -2.50212030
C       -3.05386756      -1.41350664      -1.79813502
C       -2.24466784      -0.60933380      -0.98882042
C       -3.30667782      -3.38433185      -3.37288017
O       -2.92843798      -4.48490417      -3.73676437
O       -4.49537167      -2.74970350      -3.70988235
C       -5.54687668      -3.24707930      -4.52787786
C       -5.55690902      -4.54102004      -5.04878973
C       -6.64345596      -4.97074967      -5.81648150
C       -7.71357764      -4.10964598      -6.05776202
Br      -9.18746289      -4.71274469      -7.07641831
C       -7.70747800      -2.81186623      -5.55187353
C       -6.61957247      -2.37596500      -4.78665792
C       -6.60046653      -0.99482224      -4.25902212
N       -7.54070658      -0.14088189      -4.52209538
N       -7.39150497       1.13558807      -4.03591948
C       -6.18089695       1.81611789      -3.93186216
O       -5.07354295       1.36548928      -4.21112151
C       -6.27876372       3.22453652      -3.45520631
C       -5.27626062       4.12974559      -3.83505724
C       -5.31322463       5.45219005      -3.38738352
C       -6.34709727       5.87157700      -2.55431215
O       -6.32787077       7.18458599      -2.16177363
C       -7.57937616       7.57966581      -1.58818829
C       -8.07819773       6.52861746      -0.61032345
O       -8.34727647       5.29478725      -1.28761601
C       -7.32774881       4.96250088      -2.14324727
C       -7.30465755       3.64449943      -2.59914048
H        0.74408986      -2.17029548      -1.49010277
H       -0.68032121      -3.59742772      -2.91236069
H       -4.11403290      -1.18419591      -1.86173179
H       -2.68724126       0.22549507      -0.45076023
H       -4.74426611      -5.23936676      -4.87748519
H       -6.64443037      -5.98169659      -6.21757165
H       -8.54197917      -2.14321358      -5.74840122
H       -5.75063768      -0.73564615      -3.61005094
H       -8.24413535       1.68434210      -4.09256607
H       -4.46273087       3.80611002      -4.48255703
H       -4.53902817       6.15210899      -3.69071211
H       -7.42172030       8.53187233      -1.07230319
H       -8.29761946       7.74498398      -2.40072197
H       -9.01029574       6.85924742      -0.14165825
H       -7.34514796       6.33742267       0.18332378
H       -8.06475764       2.95606011      -2.24175075
C       -0.88161310       0.88161310       0.88161310
C       -1.82122547       1.72719124       0.29461204
C       -2.62794244       2.53305631       1.10269033
C       -2.49044422       2.50143906       2.49810250
C       -1.54637401       1.64158206       3.07755315
C       -0.74216323       0.83278555       2.26787326
C       -3.37741246       3.38022595       3.30625142
O       -4.39453310       3.88901812       2.86655531
O       -2.83977750       3.53794916       4.57723086
C       -3.36427079       4.30121459       5.65634846
C       -4.59819057       4.94922698       5.59930125
C       -5.06398287       5.65245347       6.71425079
C       -4.29878763       5.70313662       7.87906139
Br      -4.95272515       6.63664148       9.38725926
C       -3.06007072       5.06924103       7.94190601
C       -2.58779611       4.36795859       6.82644069
C       -1.26721134       3.70516442       6.88193514
N       -0.49372203       3.79026717       7.91969465
N        0.74044520       3.19141776       7.84086383
C        1.52920053       3.13116978       6.69467198
O        1.22283632       3.55724353       5.58476797
C        2.86951698       2.50515883       6.87379167
C        3.90446053       2.88164082       6.00439198
C        5.16859845       2.29884788       6.11816868
C        5.39998215       1.33437984       7.09543473
O        6.66569172       0.81239425       7.15835588
C        6.87479719       0.08712471       8.37557113
C        5.69150999      -0.81965849       8.67107220
O        4.50504740      -0.04709577       8.89224839
C        4.36054811       0.92941951       7.93962380
C        3.10014926       1.51860296       7.84084490
H       -1.93393858       1.76821559      -0.78584580
H       -3.36124510       3.19077420       0.63809030
H       -1.42238947       1.58220505       4.15536609
H       -0.01105908       0.17283914       2.72860821
H       -5.22216441       4.92711485       4.71183880
H       -6.02787912       6.15354290       6.66227658
H       -2.46540163       5.11734961       8.85084272
H       -0.98360652       3.11499552       5.99773273
H        1.20147864       3.11164057       8.74219738
H        3.72795099       3.63195603       5.23517284
H        5.96962844       2.59938981       5.44786992
H        7.78593993      -0.50700989       8.25510098
H        7.04035132       0.80787616       9.18583262
H        5.87941400      -1.40463572       9.57675629
H        5.50361202      -1.51766544       7.84567897
H        2.30690072       1.16465569       8.49269331
C        0.88161310      -0.88161310       0.88161310
C        1.95179716      -0.31754039       1.57369120
C        2.75748586      -1.12543811       2.38076510
C        2.50004336      -2.49978811       2.49015431
C        1.41628158      -3.05470896       1.79451867
C        0.60839833      -2.24438419       0.99003953
C        3.39051172      -3.30855165       3.36482648
O        4.12433965      -2.81910942       4.20665745
O        3.26721381      -4.65228854       3.03545516
C        3.94364947      -5.75808718       3.62009718
C        4.79454061      -5.63378025       4.71839792
C        5.39721203      -6.77276573       5.26070937
C        5.14612485      -8.02785355       4.70700723
Br       5.94814447      -9.56205460       5.46642682
C        4.30732503      -8.16092349       3.60296924
C        3.70551386      -7.02271159       3.05396994
C        2.82561536      -7.15559042       1.87310511
N        2.62514145      -8.29397127       1.28457112
N        1.84189179      -8.29432144       0.15562316
C        1.81504970      -7.28192132      -0.80032979
O        2.44420527      -6.22869938      -0.75372947
C        0.94962400      -7.54443168      -1.98462217
C        1.26593605      -6.91231207      -3.19667586
C        0.46516961      -7.10745667      -4.32420818
C       -0.65648361      -7.92839166      -4.24207564
O       -1.39086363      -8.08461412      -5.38869208
C       -2.31054518      -9.17705242      -5.27860859
C       -3.03468875      -9.13760922      -3.94301675
O       -2.11104726      -9.31263410      -2.86148162
C       -0.99610827      -8.53041844      -3.02581496
C       -0.19193743      -8.35152604      -1.90029001
H        2.16832290       0.74468798       1.49267347
H        3.59149343      -0.67852184       2.92009434
H        1.18032857      -4.11286027       1.86677177
H       -0.22684204      -2.68683284       0.45251563
H        5.00893522      -4.67439582       5.17778702
H        6.05799288      -6.66756455       6.11814117
H        4.12015118      -9.14141624       3.17202653
H        2.33070045      -6.23428202       1.53135230
H        1.55407407      -9.22607162      -0.12778637
H        2.13923861      -6.26544958      -3.26551031
H        0.71852822      -6.62230824      -5.26320516
H       -3.02786661      -9.09061724      -6.10059947
H       -1.75447927     -10.11403017      -5.40619345
H       -3.76869175      -9.94739849      -3.88600017
H       -3.56256574      -8.18652612      -3.79955887
H       -0.49598239      -8.81069004      -0.96425937
