129
Properties=species:S:1:pos:R:3 pbc="F F F"
C        0.00000000       0.00000000       0.00000000
C        0.88119565       0.88119565      -0.88119565
C        1.87258845       0.30139218      -1.66840869
C        2.68861663       1.10583615      -2.47395561
C        2.51739958       2.49584968      -2.49563285
C        1.50986810       3.06163399      -1.69514297
C        0.69477213       2.25958835      -0.89057578
C        3.35748484       3.42911874      -3.31803607
O        3.08726194       4.63369887      -3.29435675
C        4.49977513       2.90766300      -4.17434566
S        6.07526879       3.66853982      -3.67135817
C        6.18804397       3.07637683      -2.05883530
N        6.84345264       3.79575720      -1.10661539
H        7.31133572       4.67677525      -1.26056312
C        6.68777180       3.13853966       0.08763169
C        7.11051054       3.42855700       1.38709943
C        6.73984002       2.51224080       2.37863684
C        5.99122812       1.36986014       2.08494211
C        5.58411708       1.10408498       0.77039056
C        5.94097498       2.00853028      -0.24045456
N        5.65236613       1.97958997      -1.58287609
H        2.02830551      -0.77476418      -1.65815834
H        3.46221966       0.60715141      -3.04729202
H        1.35698583       4.14008685      -1.68630892
H       -0.07339316       2.72273069      -0.27682942
H        4.28749553       3.19289827      -5.21037855
H        4.60728775       1.82496741      -4.16718935
H        7.68752029       4.31794675       1.61463275
H        5.71250597       0.67526519       2.87383283
H        4.99712935       0.22363381       0.53309062
C        7.13958674       2.75959459       3.73974619
C        7.47437461       2.96675339       4.87967527
Br       8.01569829       3.30171164       6.72284419
C       -0.88119565      -0.88119565      -0.88119565
C       -1.78149616      -0.29436118      -1.76653197
C       -2.59740850      -1.09816070      -2.57283919
C       -2.51732455      -2.49450104      -2.49705653
C       -1.60084809      -3.06749659      -1.59830037
C       -0.78596182      -2.26609253      -0.79288192
C       -3.36465689      -3.42622018      -3.31376258
O       -3.17653906      -4.64102396      -3.19775455
C       -4.41480945      -2.89271262      -4.27426172
S       -6.06521506      -3.51970631      -3.83024542
C       -6.23827511      -2.81652809      -2.26845291
N       -6.99744834      -3.42950583      -1.31887106
H       -7.51204593      -4.28810116      -1.44852700
C       -6.87296051      -2.70577804      -0.15994122
C       -7.39357201      -2.88263541       1.12423931
C       -7.02531925      -1.92756767       2.07944293
C       -6.18617223      -0.85561929       1.76564537
C       -5.68179085      -0.70293284       0.46691219
C       -6.03430845      -1.64830840      -0.50734296
N       -5.66185367      -1.72598728      -1.82699125
H       -1.86615793       0.78769616      -1.83323790
H       -3.29941171      -0.59147635      -3.22577504
H       -1.52034277      -4.15040548      -1.51263335
H       -0.08952952      -2.73437571      -0.10226172
H       -4.15808426      -3.25832268      -5.27436542
H       -4.45084133      -1.80733189      -4.34127129
H       -8.04102155      -3.71762476       1.36781203
H       -5.91158158      -0.12904871       2.52669197
H       -5.02438971       0.12189199       0.21482518
C       -7.52403306      -2.05929048       3.42388841
C       -7.94170589      -2.16960833       4.54986149
Br      -8.61704751      -2.34798297       6.37046474
C       -0.88119565       0.88119565       0.88119565
C       -2.26662190       0.75693241       0.81883501
C       -3.08041294       1.56765428       1.62034117
C       -2.51193816       2.50826619       2.48867776
C       -1.11132343       2.61705457       2.53826705
C       -0.29801499       1.80835246       1.73856881
C       -3.31158666       3.42420751       3.36884548
O       -2.70295114       4.18334264       4.12902378
C       -4.83114690       3.40781809       3.34281880
S       -5.48081565       5.04644430       2.88790683
C       -4.83443403       5.18999926       1.29882282
N       -4.54802238       6.41639357       0.78140929
H       -4.70168501       7.29719451       1.24979457
C       -3.96046178       6.22116866      -0.44295066
C       -3.43970977       7.10417914      -1.39192079
C       -2.89080630       6.52492933      -2.54229164
C       -2.86740202       5.14107731      -2.73233317
C       -3.40066839       4.28035237      -1.76320926
C       -3.95410244       4.83647848      -0.60062111
N       -4.51546163       4.21275808       0.48661249
H       -2.72790459       0.03984913       0.14394595
H       -4.15307567       1.44920725       1.51438017
H       -0.64049305       3.34369656       3.19919200
H        0.78214806       1.91631782       1.79199720
H       -5.17221925       3.16383991       4.35471319
H       -5.26006317       2.65719240       2.68218894
H       -3.45419774       8.17786846      -1.24123191
H       -2.43165953       4.71540525      -3.63312646
H       -3.38136183       3.20449498      -1.89818427
C       -2.33131770       7.38271847      -3.55460103
C       -1.86274599       8.10111687      -4.40241014
Br      -1.10510518       9.26270634      -5.77324577
C        0.88119565      -0.88119565       0.88119565
C        2.25539598      -0.66134652       0.92564682
C        3.06978284      -1.47121133       1.72741422
C        2.51321805      -2.50663333       2.48903074
C        1.12364885      -2.71118043       2.43181577
C        0.30976589      -1.90342215       1.63174823
C        3.31578458      -3.42773808       3.36111700
O        2.71353653      -4.27752633       4.02425470
C        4.82873258      -3.30894836       3.44410285
S        5.62171198      -4.86454237       2.92891242
C        5.09380138      -4.93748898       1.29196575
N        4.93001269      -6.14035380       0.67545874
H        5.11441956      -7.04005010       1.09420444
C        4.41245745      -5.89809952      -0.57187720
C        4.01965281      -6.74410387      -1.61178856
C        3.50842796      -6.12232656      -2.75731053
C        3.39954289      -4.73307455      -2.85647129
C        3.80504919      -3.90985160      -1.79708930
C        4.31833367      -4.50918107      -0.63755493
N        4.76079264      -3.92836269       0.52567687
H        2.70832193       0.13077932       0.33415705
H        4.13599606      -1.27477018       1.70589686
H        0.66282317      -3.51246147       3.00809697
H       -0.76117696      -2.08620091       1.60114300
H        5.08387442      -3.11532299       4.49157495
H        5.24612096      -2.48659350       2.86673006
H        4.10026544      -7.82245591      -1.53188707
H        2.99531233      -4.27436220      -3.75573621
H        3.71844628      -2.83077563      -1.86154937
C        3.07947484      -6.94130034      -3.86134005
C        2.72022661      -7.62719088      -4.78596476
Br       2.13935260      -8.73621788      -6.28100473
