146
Properties=species:S:1:pos:R:3 pbc="F F F"
C        1.79126133       1.79126133      -1.79126133
C        2.05565161       1.41500088      -3.10521813
C        2.84687490       2.23558919      -3.91622726
C        3.36109389       3.44233667      -3.42461041
C        3.10609186       3.79378501      -2.09634740
C        2.32212150       2.97137238      -1.27993162
N        4.10425449       4.24359907      -4.31585961
C        4.52928821       5.54171500      -4.10150612
O        4.32885391       6.24457442      -3.12046365
C        5.23746112       6.14398751      -5.25679882
C        4.58927298       7.22464844      -5.86649376
C        5.16389477       7.83563616      -6.96843853
C        6.38649533       7.36945361      -7.45655057
C        7.07977934       6.28930512      -6.85164865
C        8.33297717       5.80621955      -7.31350608
Br       9.22389916       6.54677852      -8.82950083
C        8.99156969       4.75305779      -6.67233728
C        8.42550505       4.16108438      -5.55350019
C        7.19589994       4.61433637      -5.08035446
C        6.49272333       5.66615092      -5.71618891
H        1.64443585       0.49426513      -3.51066262
H        3.03142538       1.92769196      -4.94220686
H        3.50557652       4.70496884      -1.66145047
H        2.13000897       3.27057339      -0.25284912
H        4.26778811       3.85835985      -5.23907939
H        3.63975393       7.58612695      -5.47672890
H        4.66995497       8.67696737      -7.44875192
H        6.80046687       7.88338882      -8.32024417
H        9.95338897       4.39663376      -7.03330232
H        8.94304731       3.35368184      -5.04119998
H        6.79957327       4.14030279      -4.18264542
C       -1.79126133      -1.79126133      -1.79126133
C       -2.46866107      -1.23463040      -2.87257914
C       -3.25905885      -2.04937842      -3.69025408
C       -3.36115027      -3.42435504      -3.44253566
C       -2.69392672      -3.96311102      -2.33918652
C       -1.90929212      -3.14970370      -1.51442968
N       -4.13172858      -4.19142495      -4.34055964
C       -4.20483800      -5.57099442      -4.39667691
O       -3.60854234      -6.38287307      -3.70247656
C       -5.05424947      -6.08659451      -5.49740348
C       -4.38226072      -6.80408626      -6.49406820
C       -5.08994712      -7.30335960      -7.57466274
C       -6.46759645      -7.08923029      -7.65567277
C       -7.18319756      -6.38325056      -6.65428499
C       -8.58615363      -6.16682831      -6.69972086
Br      -9.67500781      -6.78635563      -8.13881507
C       -9.25382693      -5.48453115      -5.67860669
C       -8.54573818      -5.00894459      -4.58540685
C       -7.16817464      -5.20592690      -4.51648923
C       -6.45739972      -5.87617537      -5.54148807
H       -2.38109786      -0.17419934      -3.09406640
H       -3.77031951      -1.59563393      -4.53537075
H       -2.76458028      -5.01754420      -2.08987135
H       -1.39242754      -3.59347659      -0.66752736
H       -4.61187788      -3.68064029      -5.07270918
H       -3.30959714      -6.97206322      -6.42094941
H       -4.57835335      -7.86363074      -8.35369018
H       -6.98072369      -7.50383140      -8.51954476
H      -10.32933620      -5.33057552      -5.72341333
H       -9.06396474      -4.49354511      -3.78041929
H       -6.65429125      -4.84065155      -3.62757868
C       -1.79126133       1.79126133       1.79126133
C       -2.09815391       3.08829562       1.38942108
C       -2.92298051       3.88592544       2.18978540
C       -3.45865790       3.38576482       3.38361825
C       -3.12167635       2.09014236       3.78440556
C       -2.29028897       1.29260589       2.99053063
N       -4.32535071       4.22782906       4.11053340
C       -5.10663759       3.87163163       5.19424011
O       -5.21242152       2.76866686       5.71280359
C       -5.96511488       4.96707990       5.70605268
C       -7.34400138       4.76968511       5.56672870
C       -8.22353019       5.75022965       5.99420963
C       -7.72483472       6.92368416       6.56398063
C       -6.33465186       7.14832482       6.73775643
C       -5.79918712       8.32234705       7.33116864
Br      -6.89840250       9.75540876       7.94636725
C       -4.42230700       8.49161169       7.50304607
C       -3.54628618       7.49618518       7.09761826
C       -4.04479121       6.33498390       6.51081567
C       -5.43186220       6.13857598       6.30462497
H       -1.71127517       3.48405022       0.45403821
H       -3.15835070       4.89167091       1.85130258
H       -3.48926939       1.66794324       4.71478320
H       -2.04984124       0.28476830       3.31882195
H       -4.45231876       5.16560761       3.74730098
H       -7.72525957       3.85006474       5.12728547
H       -9.29662511       5.60662045       5.89242870
H       -8.45341747       7.66211376       6.88856863
H       -4.02609265       9.39328449       7.96394791
H       -2.47585874       7.61614292       7.24592747
H       -3.32441889       5.56629523       6.23180737
C        1.79126133      -1.79126133       1.79126133
C        2.00608222      -3.12288637       1.44690202
C        2.83098096      -3.92189242       2.24581798
C        3.45832132      -3.38995518       3.37976447
C        3.21336719      -2.05811075       3.72474632
C        2.38228515      -1.25848721       2.93265315
N        4.31850102      -4.23949472       4.10571742
C        5.17693848      -3.87066112       5.12490973
O        5.36981899      -2.74942762       5.57464537
C        6.00347872      -4.98376360       5.65100514
C        7.38093056      -4.87145024       5.42803438
C        8.22982826      -5.87563357       5.86250762
C        7.70233775      -6.98753872       6.52262304
C        6.31410704      -7.12456080       6.78206527
C        5.75124859      -8.23372363       7.46773058
Br       6.80571505      -9.69142546       8.10303799
C        4.37910746      -8.31637869       7.72147862
C        3.53572878      -7.29638593       7.30797490
C        4.06142801      -6.19758890       6.63157387
C        5.44324813      -6.09025824       6.34155678
H        1.54708180      -3.54536298       0.55691882
H        2.99346092      -4.95573870       1.95212456
H        3.65425968      -1.60845464       4.60928151
H        2.21428352      -0.22281075       3.21633721
H        4.37511598      -5.20082402       3.78928734
H        7.78517933      -3.99915561       4.91827484
H        9.30164828      -5.79785589       5.69617009
H        8.40780484      -7.74733320       6.84896181
H        3.96209751      -9.16880625       8.25242129
H        2.47042302      -7.34826762       7.51923848
H        3.36829851      -5.40567067       6.34855230
C       -0.00445707       0.01189536      -1.78238275
H       -0.66409135       0.67374010      -2.43557963
H        0.65740317      -0.63156657      -2.45157240
C       -0.90989263      -0.90692880      -0.91072765
C        0.90977584       0.90977584      -0.90977584
C       -0.00465871       1.77757030       0.00794375
H       -0.66225468       2.44313916      -0.64384735
H        0.64322798       2.43503045       0.67728295
C       -1.78241447       0.00034974      -0.00472694
H       -2.45427497      -0.65498947       0.64260836
H       -2.43311707       0.67328779      -0.65473579
C       -0.91132561       0.90220522       0.91563759
C       -0.01476271      -0.02253852       1.78660255
H       -0.67934791      -0.69751639       2.42135241
H        0.63392994       0.61504881       2.47327442
C        0.01484550      -1.77751727      -0.01636693
H        0.67870853      -2.42144646      -0.68295456
H       -0.62264859      -2.45592969       0.64226336
C        1.78714474       0.01002794       0.00389507
H        2.44202412       0.67113390       0.66197326
H        2.45385902      -0.65136977      -0.64189061
C        0.91606151      -0.90478549       0.90901405
