182
Properties=species:S:1:pos:R:3 pbc="F F F"
C        1.77736403       1.77736403      -1.77736403
C        3.13854176       1.64279164      -1.92546831
C        3.53915781       2.65924970      -2.82392776
C        2.39698742       3.35747835      -3.17164251
O        1.31460447       2.81443061      -2.52941844
C        2.22218692       4.49567224      -4.05360728
O        3.17311106       4.99796930      -4.63918888
N        0.90420945       4.92195781      -4.14868890
C        0.39613260       6.00091836      -4.90403980
C        1.20771006       6.84713010      -5.67795515
C        0.68233219       7.91491696      -6.41767323
C       -0.69086243       8.07229366      -6.34765258
O       -1.43965753       9.01246681      -6.98071025
C       -2.73148777       8.69570010      -6.64731470
N       -2.83943806       7.69208283      -5.78977739
C       -1.54256258       7.26892950      -5.61331252
C       -0.99763453       6.21486067      -4.86174135
C       -3.78095710       9.54688521      -7.22080161
C       -4.87669405       9.83190359      -6.38807642
C       -5.90545344      10.65353595      -6.82216343
C       -5.85573246      11.20151309      -8.10056293
C       -4.79022563      10.93570313      -8.99248588
C       -4.73206453      11.47769900     -10.30695672
Br      -6.07695228      12.63970429     -11.00568465
C       -3.67875460      11.18539671     -11.17623933
C       -2.66752184      10.33621172     -10.76558055
C       -2.70520700       9.78986439      -9.48327655
C       -3.73770341      10.08060892      -8.55165755
H        3.76815069       0.90566529      -1.44661763
H        4.53728657       2.87244254      -3.18392972
H        0.23948129       4.37798601      -3.60739020
H        2.28378746       6.70722296      -5.73268319
H        1.30675414       8.56706692      -7.01499817
H       -1.65987243       5.58392397      -4.28029532
H       -4.92194786       9.41467524      -5.38269261
H       -6.74507906      10.87313047      -6.16747825
H       -6.68370926      11.84319153      -8.39462134
H       -3.64526228      11.60790897     -12.17724355
H       -1.84845829      10.09135221     -11.43710402
H       -1.89571382       9.10986220      -9.22899108
C       -1.77736403      -1.77736403      -1.77736403
C       -3.15201255      -1.81733735      -1.73745181
C       -3.54685680      -2.76212749      -2.71335099
C       -2.38773371      -3.24592272      -3.29245186
O       -1.30087811      -2.63960084      -2.71797456
C       -2.19997699      -4.23188786      -4.33960159
O       -3.15473175      -4.78672081      -4.86881668
N       -0.86607224      -4.45481881      -4.65396511
C       -0.34039121      -5.35147967      -5.60921988
C       -1.14246292      -6.20169826      -6.38863414
C       -0.59896409      -7.08687450      -7.32908379
C        0.77936516      -7.05806986      -7.45037912
O        1.54168251      -7.79967151      -8.29553053
C        2.81885275      -7.34859915      -8.08178063
N        2.92197910      -6.45233976      -7.11206149
C        1.62057181      -6.23949784      -6.72075342
C        1.06119996      -5.37198525      -5.76818220
C        3.87404348      -7.96801219      -8.89276102
C        5.10202010      -8.19678356      -8.24852250
C        6.15273616      -8.80711820      -8.91586390
C        5.99220230      -9.19601535     -10.24253051
C        4.78800298      -8.97464446     -10.95132188
C        4.61340007      -9.35442926     -12.31156199
Br       5.97939798     -10.22260982     -13.32522482
C        3.42110805      -9.10809345     -12.99589604
C        2.38096472      -8.46536761     -12.34986754
C        2.53041789      -8.08023277     -11.01811906
C        3.71078464      -8.33557878     -10.26976892
H       -3.79392772      -1.23970371      -1.08680218
H       -4.55184034      -3.06710566      -2.97471283
H       -0.20382137      -3.89363468      -4.12740145
H       -2.22457384      -6.20799479      -6.29112498
H       -1.21620298      -7.74185834      -7.93075790
H        1.71597242      -4.73061369      -5.18970559
H        5.23599414      -7.90356283      -7.20785129
H        7.09615939      -8.98562330      -8.40606575
H        6.84318535      -9.67474649     -10.72254248
H        3.29994981      -9.40539755     -14.03444251
H        1.45229827      -8.25710131     -12.87519489
H        1.68734396      -7.55639239     -10.57409102
C       -1.77736403       1.77736403       1.77736403
C       -1.92374382       3.13886598       1.64419191
C       -2.82291330       3.53934668       2.66007529
C       -3.17274989       2.39677425       3.35658415
O       -2.53114763       1.31427756       2.81302833
C       -4.05622846       2.22167980       4.49355818
O       -4.64129282       3.17269946       4.99627696
N       -4.15332108       0.90332244       4.91821264
C       -4.91050175       0.39487426       5.99571475
C       -5.68445712       1.20636832       6.84196987
C       -6.42601203       0.68061399       7.90829636
C       -6.35775594      -0.69284101       8.06416889
O       -6.99276085      -1.44198828       9.00274697
C       -6.66048925      -2.73383642       8.68487420
N       -5.80191933      -2.84161932       7.68212214
C       -5.62347151      -1.54446144       7.26066939
C       -4.87005681      -0.99918644       6.20809712
C       -7.23616736      -3.78362368       9.53418604
C       -6.40503522      -4.88064867       9.81889941
C       -6.84125565      -5.90985284      10.63884312
C       -8.12022850      -5.85928828      11.18540334
C       -9.01061534      -4.79244720      10.91979523
C      -10.32564285      -4.73339401      11.46034234
Br     -11.02726103      -6.07881305      12.61998868
C      -11.19337287      -3.67874539      11.16825397
C      -10.78056905      -2.66700905      10.32071043
C       -9.49767971      -2.70554418       9.77579842
C       -8.56758760      -3.73944945      10.06642491
H       -1.44331740       3.76877114       0.90834507
H       -3.18201028       4.53764381       2.87400473
H       -3.61216158       0.23859752       4.37409840
H       -5.73778327       2.28266872       6.70324163
H       -7.02336901       1.30497270       8.56047751
H       -4.28864679      -1.66136719       5.57706725
H       -5.39922343      -4.92658172       9.40277827
H       -6.18779256      -6.75048597      10.85822306
H       -8.41598142      -6.68766428      11.82578648
H      -12.19482473      -3.64458498      11.58965048
H      -11.45086495      -1.84688941      10.07602240
H       -9.24167677      -1.89556171       9.09702439
C        1.77736403      -1.77736403       1.77736403
C        1.52820119      -3.09540618       2.08319433
C        2.59037712      -3.51323193       2.91872622
C        3.42714910      -2.42321376       3.07574541
O        2.92791423      -1.35732340       2.37321589
C        4.65859677      -2.28351701       3.82935265
O        5.12516425      -3.22099138       4.46411361
N        5.21709562      -1.01530893       3.74245161
C        6.39616965      -0.54491805       4.36000306
C        7.18542092      -1.33505373       5.21232066
C        8.35079765      -0.84641187       5.81771286
C        8.68151857       0.46153034       5.50909559
O        9.76203432       1.15749592       5.94898114
C        9.67196510       2.36398985       5.30355178
N        8.57870555       2.50568441       4.56940102
C        7.95272112       1.28516116       4.67211948
C        6.77643196       0.78624082       4.08877636
C       10.74265346       3.33083101       5.57490727
C       10.35662609       4.67917142       5.66583130
C       11.28570459       5.66748459       5.95202593
C       12.61947333       5.32196608       6.14883631
C       13.07322454       3.98559301       6.05033184
C       14.43556356       3.61862804       6.23565566
Br      15.79913610       4.88763932       6.65693987
C       14.86277024       2.29447151       6.11458272
C       13.94987543       1.30722120       5.79161621
C       12.61013852       1.64356403       5.60135946
C       12.12072136       2.96973869       5.74358039
H        0.68635115      -3.68559371       1.74848875
H        2.74204536      -4.48820083       3.36341263
H        4.70548985      -0.36276439       3.15660325
H        6.92046951      -2.36406040       5.43916370
H        8.96011528      -1.45471034       6.47399361
H        6.19812787       1.42866609       3.43488508
H        9.31390642       4.95988053       5.52139409
H       10.97526546       6.70663212       6.02689631
H       13.31039021       6.13140793       6.37512134
H       15.90623883       2.02723102       6.26088243
H       14.27205683       0.27470500       5.68264611
H       11.94678559       0.82780352       5.32415739
C       -0.00445707       0.01189536      -1.78238275
H       -0.66409135       0.67374010      -2.43557963
H        0.65740317      -0.63156657      -2.45157240
C       -0.90989263      -0.90692880      -0.91072765
C        0.90977584       0.90977584      -0.90977584
C       -0.00465871       1.77757030       0.00794375
H       -0.66225468       2.44313916      -0.64384735
H        0.64322798       2.43503045       0.67728295
C       -1.78241447       0.00034974      -0.00472694
H       -2.45427497      -0.65498947       0.64260836
H       -2.43311707       0.67328779      -0.65473579
C       -0.91132561       0.90220522       0.91563759
C       -0.01476271      -0.02253852       1.78660255
H       -0.67934791      -0.69751639       2.42135241
H        0.63392994       0.61504881       2.47327442
C        0.01484550      -1.77751727      -0.01636693
H        0.67870853      -2.42144646      -0.68295456
H       -0.62264859      -2.45592969       0.64226336
C        1.78714474       0.01002794       0.00389507
H        2.44202412       0.67113390       0.66197326
H        2.45385902      -0.65136977      -0.64189061
C        0.91606151      -0.90478549       0.90901405
