169
Properties=species:S:1:pos:R:3 pbc="F F F"
C        0.00000000       0.00000000       0.00000000
C        0.86746001       0.86746001      -0.86746001
C        2.22863773       0.73288761      -1.01556429
C        2.62925378       1.74934567      -1.91402374
C        1.48708340       2.44757433      -2.26173848
O        0.40470045       1.90452659      -1.61951441
C        1.31228289       3.58576822      -3.14370326
O        2.26320704       4.08806528      -3.72928485
N       -0.00569458       4.01205379      -3.23878488
C       -0.51377142       5.09101433      -3.99413577
C        0.29780603       5.93722608      -4.76805113
C       -0.22757183       7.00501294      -5.50776920
C       -1.60076645       7.16238964      -5.43774856
O       -2.34956155       8.10256279      -6.07080623
C       -3.64139180       7.78579608      -5.73741067
N       -3.74934208       6.78217880      -4.87987336
C       -2.45246660       6.35902548      -4.70340850
C       -1.90753855       5.30495664      -3.95183733
C       -4.69086112       8.63698119      -6.31089758
C       -5.78659807       8.92199956      -5.47817240
C       -6.81535746       9.74363192      -5.91225941
C       -6.76563649      10.29160907      -7.19065890
C       -5.70012966      10.02579910      -8.08258185
C       -5.64196856      10.56779497      -9.39705269
C       -4.58865862      10.27549269     -10.26633530
C       -3.57742586       9.42630770      -9.85567652
C       -3.61511103       8.87996037      -8.57337253
C       -4.64760744       9.17070490      -7.64175352
H        2.85824666      -0.00423874      -0.53671361
H        3.62738254       1.96253851      -2.27402569
H       -0.67042274       3.46808199      -2.69748618
H        1.37388343       5.79731894      -4.82277917
H        0.39685012       7.65716289      -6.10509414
H       -2.56977645       4.67401994      -3.37039130
H       -5.83185189       8.50477121      -4.47278859
H       -7.65498308       9.96322644      -5.25757422
H       -7.59361328      10.93328751      -7.48471732
H       -4.55516630      10.69800495     -11.26733953
H       -2.75836232       9.18144818     -10.52720000
H       -2.80561785       8.19995817      -8.31908706
C       -6.65604042      11.44396987      -9.92390732
C       -7.50532561      12.17776634     -10.36514807
Br      -8.87854794      13.36425317     -11.07859705
C       -0.86746001      -0.86746001      -0.86746001
C       -2.12389759      -0.53466498      -1.31852706
C       -2.56791570      -1.63239874      -2.09230876
C       -1.55508489      -2.57395755      -2.06735377
O       -0.50999545      -2.10296127      -1.31578473
C       -1.47361980      -3.88445845      -2.68367611
O       -2.39338697      -4.32698726      -3.36018294
N       -0.27805346      -4.54157317      -2.42551745
C        0.11481435      -5.82588975      -2.86030329
C       -0.71050688      -6.66290768      -3.62966868
C       -0.30133538      -7.93617056      -4.04770437
C        0.97532945      -8.30935254      -3.66534865
O        1.60793320      -9.47588606      -3.95585461
C        2.86034323      -9.32348278      -3.41867540
N        3.02702093      -8.19630700      -2.74342401
C        1.83709930      -7.52877888      -2.91828780
C        1.40419442      -6.26286948      -2.49058036
C        3.79074848     -10.44363523      -3.60413090
C        4.64230664     -10.73202183      -2.52385869
C        5.53497713     -11.79094144      -2.58456955
C        5.59231160     -12.57781126      -3.73113183
C        4.77601383     -12.32552666      -4.85873847
C        4.83268790     -13.11274836      -6.04281865
C        4.02978609     -12.83231811      -7.15063734
C        3.16379408     -11.75480733      -7.11354510
C        3.09386125     -10.96661585      -5.96546728
C        3.86632574     -11.22889599      -4.80228074
H       -2.65780392       0.38359042      -1.11650803
H       -3.51134312      -1.74124740      -2.61135623
H        0.38260738      -4.01894899      -1.85880382
H       -1.70748893      -6.35448078      -3.93201184
H       -0.93623462      -8.58160044      -4.64127209
H        2.07377818      -5.64769599      -1.90071698
H        4.60026049     -10.12746326      -1.61850513
H        6.18438952     -12.00959293      -1.74061416
H        6.30534714     -13.39960592      -3.73013276
H        4.08129117     -13.44306902      -8.04840032
H        2.54236783     -11.51890758      -7.97374612
H        2.41349692     -10.11945388      -6.00747043
C        5.71575674     -14.24108453      -6.18650898
C        6.45532690     -15.18606607      -6.30684963
Br       7.65114929     -16.71402129      -6.50143028
C       -0.86746001       0.86746001       0.86746001
C       -1.08759978       2.21216663       0.67732323
C       -1.95640385       2.61963901       1.71658034
C       -2.21549087       1.49786023       2.48304511
O       -1.54728615       0.42128895       1.96016634
C       -3.03423994       1.33789318       3.66962124
O       -3.64143085       2.28394657       4.15517975
N       -3.04532119       0.03919578       4.16062712
C       -3.72429362      -0.45030757       5.29739263
C       -4.49668932       0.36469754       6.14169637
C       -5.15974129      -0.14188640       7.26735543
C       -5.01586860      -1.50109247       7.48459562
O       -5.56755812      -2.23184828       8.48809762
C       -5.18682517      -3.52070825       8.21569803
N       -4.37247560      -3.63744720       7.17768169
C       -4.27902433      -2.35588148       6.68682452
C       -3.60446033      -1.82857579       5.57337088
C       -5.66859248      -4.55302361       9.14144877
C       -4.77130301      -5.59385994       9.43613082
C       -5.11636034      -6.60048951      10.32466304
C       -6.36890340      -6.58348514      10.93121323
C       -7.32289837      -5.57462011      10.65997304
C       -8.61211858      -5.55115647      11.26191700
C       -9.54415908      -4.55469905      10.96370933
C       -9.22290210      -3.56798070      10.04963696
C       -7.96697262      -3.57271632       9.44396558
C       -6.97381978      -4.54559479       9.73662600
H       -0.67457126       2.82672603      -0.11057576
H       -2.35421186       3.60919514       1.90053975
H       -2.49814933      -0.62538379       3.62237988
H       -4.61005866       1.42901402       5.95490886
H       -5.75584271       0.48513817       7.91812628
H       -3.02138183      -2.49303599       4.94628895
H       -3.78531909      -5.61270352       8.97309234
H       -4.41218385      -7.39721970      10.55085344
H       -6.59234070      -7.39204086      11.62409170
H      -10.52495705      -4.54713080      11.43235192
H       -9.94405039      -2.79377385       9.80000933
H       -7.78409603      -2.78630723       8.71563859
C       -9.04792087      -6.54477958      12.20869547
C       -9.41290529      -7.37693893      13.00162245
Br     -10.00305422      -8.72247023      14.28371830
C        0.86746001      -0.86746001       0.86746001
C        0.80620668      -2.24046158       0.93042138
C        1.79089982      -2.63595504       1.86576834
C        2.39627130      -1.47880999       2.32131491
O        1.82947681      -0.39259750       1.70666713
C        3.46219090      -1.29235413       3.28720934
O        3.98501178      -2.24658806       3.84895733
N        3.80144826       0.03965800       3.48335382
C        4.77945281       0.56401557       4.35594144
C        5.55965611      -0.23691699       5.20651014
C        6.52295777       0.30531073       6.06756327
C        6.66581358       1.68084707       6.01440524
O        7.53500873       2.44108848       6.72988721
C        7.33441899       3.71418338       6.26157935
N        6.35202463       3.81871114       5.37939659
C        5.93652700       2.52060106       5.19404144
C        4.96114019       1.96298431       4.35109954
C        8.17215206       4.76582206       6.85068765
C        7.55145660       6.00761947       7.06973676
C        8.24536880       7.05697573       7.65214079
C        9.57544623       6.88112890       8.02231415
C       10.26117868       5.66217104       7.80924365
C       11.62444748       5.47156688       8.16999852
C       12.28551348       4.26451147       7.93216736
C       11.61255098       3.22486009       7.31686747
C       10.27727684       3.38977198       6.95071702
C        9.55216711       4.58609072       7.19877459
H        0.13605680      -2.88087150       0.37379323
H        2.04106921      -3.64004684       2.18283070
H        3.27649319       0.70131942       2.91997165
H        5.44495523      -1.31705930       5.23196702
H        7.12524988      -0.31107086       6.72278641
H        4.38286169       2.61673026       3.70850336
H        6.50843123       6.15379280       6.79106948
H        7.75370670       8.01130255       7.82341343
H       10.07674037       7.73174485       8.47939602
H       13.32668619       4.13125052       8.21474250
H       12.11949033       2.28455727       7.11535281
H        9.81135012       2.54575580       6.44783306
C       12.41570345       6.49933325       8.79546657
C       13.07838033       7.36008758       9.31929606
Br      14.14987279       8.75185454      10.16628404
