181
Properties=species:S:1:pos:R:3 pbc="F F F"
C        0.00000000       0.00000000       0.00000000
O        5.41189109      -7.63116970      -8.70203018
C        4.66480953      -8.36564805      -8.05896869
N        3.92549590      -7.99607708      -6.94643561
N        3.88849967      -6.70196812      -6.51943691
C        3.10364399      -6.48998764      -5.51030492
C        2.90025444      -5.14692937      -4.92979478
C        1.98781298      -5.00809006      -3.87690016
C        1.74339536      -3.74805279      -3.32623125
C        2.42870116      -2.63902574      -3.81976970
C        3.33382977      -2.76928058      -4.87530693
C        3.57460129      -4.02885628      -5.43062578
O        2.17964694      -1.32891280      -3.36481989
C        2.03254105      -1.07355982      -2.00651714
O        2.10991953      -1.87635129      -1.09360556
C        1.78538333       0.38288189      -1.83899480
C        2.51524325       1.28461332      -2.63529805
C        2.34895432       2.66268933      -2.48793396
C        1.46057029       3.15657431      -1.53751176
C        0.73155399       2.27363892      -0.74010949
C        0.88711998       0.88711998      -0.88711998
C        4.45840622      -9.83132302      -8.45060767
O        3.42745636     -10.42717387      -7.65524020
C        2.89797603     -11.58397133      -8.16181557
C        2.34860357     -11.63399632      -9.44669589
C        1.72178947     -12.79866433      -9.89804453
C        1.62352649     -13.90588377      -9.05821210
Cl       0.82673632     -15.32635771      -9.61257917
C        2.14703300     -13.86347423      -7.76865478
C        2.77698568     -12.69916928      -7.32056862
Br       3.45419653     -12.67282808      -5.54715324
H        3.32932343      -8.69760180      -6.51273837
H        2.53498311      -7.31330082      -5.04185721
H        1.45255212      -5.86807084      -3.48300942
H        1.01862856      -3.64637915      -2.52275298
H        3.84719998      -1.89750789      -5.27138854
H        4.27751723      -4.13268916      -6.25496576
H        3.23014062       0.92200115      -3.37123048
H        2.91818317       3.34927485      -3.11049452
H        1.33368711       4.23018716      -1.41626939
H        0.03894229       2.67759218      -0.00454273
H        5.39855811     -10.36610527      -8.27722545
H        4.22163513      -9.83539897      -9.51892940
H        2.36286342     -10.76633435     -10.10064764
H        1.29461649     -12.82647666     -10.89775616
H        2.05193651     -14.72762770      -7.11613475
O       -8.71955658      -5.38991257       7.62671758
C       -8.07647796      -4.64270816       8.36105594
N       -6.96245500      -3.90538876       7.99198933
N       -6.53366774      -3.87070843       6.69840772
C       -5.52319623      -3.08749596       6.48673092
C       -4.94060805      -2.88669485       5.14418305
C       -3.88630056      -1.97585721       5.00553470
C       -3.33360993      -1.73387625       3.74591236
C       -3.82657917      -2.42001014       2.63714420
C       -4.88350788      -3.32354295       2.76719471
C       -5.44084291      -3.56187220       4.02634431
O       -3.36953391      -2.17333133       1.32731121
C       -2.01069237      -2.02839523       1.07358923
O       -1.09896570      -2.10592014       1.87771203
C       -1.84087993      -1.78342350      -0.38295659
C       -2.63695204      -2.51342545      -1.28477714
C       -2.48751199      -2.34918980      -2.66287583
C       -1.53523187      -1.46274968      -3.15667481
C       -0.73803662      -0.73361813      -2.27364765
C       -0.88711998      -0.88711998      -0.88711998
C       -8.46980855      -4.43380598       9.82592367
O       -7.67385580      -3.40312510      10.42145822
C       -8.18127253      -2.87140775      11.57686001
C       -9.46547831      -2.32024183      11.62441699
C       -9.91754798      -1.69125452      12.78763283
C       -9.07907311      -1.59263029      13.89584860
Cl      -9.63427609      -0.79318444      15.31450275
C       -7.79016577      -2.11792635      13.85587856
C       -7.34136328      -2.75004736      12.69302562
Br      -5.56882723      -3.42967625      12.66998178
H       -6.52889908      -3.30885609       8.69329517
H       -5.05509064      -2.51835761       7.30990875
H       -3.49284605      -1.43996925       5.86532460
H       -2.52902091      -1.01032764       3.64434616
H       -5.27910794      -3.83755323       1.89558054
H       -6.26626710      -4.26353904       4.13001230
H       -3.37433280      -3.22684421      -0.92219523
H       -3.10991471      -2.91850491      -3.34953292
H       -1.41237580      -1.33747479      -4.23029307
H       -0.00099594      -0.04254015      -2.67754111
H       -8.29841093      -5.37346942      10.36220206
H       -9.53781513      -4.19559382       9.82824338
H      -10.11828177      -2.33479049      10.75589554
H      -10.91672021      -1.26270108      12.81352529
H       -7.13868050      -2.02254399      14.72078093
O       -8.89300116       5.16898394      -7.57923353
C       -8.24973163       4.42056160      -8.31216306
N       -7.12098324       3.70327343      -7.94840223
N       -6.67450694       3.69186399      -6.66040248
C       -5.65077374       2.92517344      -6.45198592
C       -5.04761832       2.75039345      -5.11489193
C       -3.97930394       1.85569729      -4.97837816
C       -3.40659138       1.63822130      -3.72323886
C       -3.89394450       2.33266577      -2.61716515
C       -4.96466566       3.22013990      -2.74494944
C       -5.54196598       3.43390914      -3.99950432
O       -3.41612492       2.10989436      -1.31046526
C       -2.05217286       1.98659243      -1.07326693
O       -1.15241418       2.06539635      -1.89063672
C       -1.85959546       1.76367548       0.38398909
C       -2.65335816       2.49512255       1.28667391
C       -2.48329256       2.35159148       2.66469358
C       -1.51256890       1.48473735       3.15735010
C       -0.71744376       0.75443023       2.27342841
C       -0.88711998       0.88711998       0.88711998
C       -8.65974686       4.18658543      -9.76864142
O       -7.85793313       3.15866326     -10.36107369
C       -8.37350093       2.60459897     -11.50227963
C       -9.65064020       2.03571705     -11.52505410
C      -10.10965721       1.38503459     -12.67352214
C       -9.28481590       1.28262062     -13.79158171
Cl      -9.84805292       0.45666969     -15.19176482
C       -8.00272677       1.82559741     -13.77611062
C       -7.54702367       2.47936439     -12.62800304
Br      -5.78371139       3.18288335     -12.63807305
H       -6.68879872       3.10314163      -8.64748035
H       -5.18604666       2.35124131      -7.27374846
H       -3.59015458       1.31351516      -5.83617903
H       -2.59098427       0.92693862      -3.62292050
H       -5.35550559       3.74057988      -1.87500483
H       -6.37813603       4.12300693      -4.10134913
H       -3.40512201       3.19363846       0.92461177
H       -3.10411665       2.92178702       3.35204887
H       -1.37368175       1.37567806       4.23078385
H        0.03422967       0.07880637       2.67650050
H       -8.50828574       5.12110246     -10.31970991
H       -9.72436252       3.93410446      -9.75330142
H      -10.29190933       2.05330490     -10.64803751
H      -11.10318661       0.94284778     -12.68013840
H       -7.36163170       1.72722193     -14.64841008
O        7.94484502       7.76877450       6.30668105
C        7.21426780       8.51915725       5.66301963
N        6.24307935       8.12389944       4.75667452
N        5.93799625       6.80763451       4.57560671
C        4.96436041       6.58920325       3.74880410
C        4.46294540       5.23177086       3.45194531
C        3.36839787       5.10050121       2.58872642
C        2.84476614       3.83555042       2.31235810
C        3.43277902       2.70935435       2.88602044
C        4.51939545       2.83396110       3.75442177
C        5.04023323       4.09980311       4.03594068
O        2.91406755       1.41082894       2.71231541
C        2.49262356       0.98521872       1.45809353
O        2.52660395       1.61592958       0.41649943
C        2.00468037      -0.41299226       1.58958739
C        2.72057432      -1.30011075       2.41446956
C        2.32658886      -2.63336776       2.53962099
C        1.22044486      -3.09895310       1.83525839
C        0.50236535      -2.23043320       1.01250385
C        0.88711998      -0.88711998       0.88711998
C        7.30198442      10.04006466       5.81577111
O        6.24759115      10.68298880       5.09092034
C        5.99512508      11.97772840       5.45842359
C        5.69532819      12.31573999       6.78171494
C        5.33958850      13.62708181       7.10866297
C        5.26116593      14.59592869       6.11061756
Cl       4.79655364      16.20158381       6.51798796
C        5.53611256      14.26919866       4.78529965
C        5.89553659      12.95814325       4.46099167
Br       6.23687074      12.54748432       2.63913527
H        5.69139212       8.84686673       4.29993460
H        4.45151318       7.42058523       3.23261155
H        2.90670921       5.97280305       2.13358454
H        1.98244554       3.74457032       1.65712717
H        4.95841184       1.95438578       4.21705457
H        5.88530824       4.19986777       4.71435336
H        3.60038961      -0.96364670       2.95933594
H        2.88768932      -3.30878401       3.18147921
H        0.91496062      -4.13908330       1.92609974
H       -0.36189029      -2.61099957       0.47196792
H        8.26592852      10.36815828       5.41190805
H        7.26113021      10.24571340       6.88974876
H        5.69500804      11.56698018       7.56914886
H        5.10493038      13.87921865       8.14018427
H        5.45752207      15.02905075       4.01197224
