101
Properties=species:S:1:pos:R:3 pbc="F F F"
C        0.00000000       0.00000000       0.00000000
C        0.88179301       0.88179301      -0.88179301
C        2.03664025       1.45384069      -0.35116334
C        2.83655651       2.26750528      -1.15688118
C        2.49497494       2.49806946      -2.49335927
C        1.32824061       1.92823353      -3.00982878
C        0.52168473       1.11616164      -2.20769536
N        3.27141788       3.34272566      -3.29952963
C        4.41347675       2.87208686      -3.69557037
C        5.32200796       3.68408191      -4.53162269
C        6.52982051       3.10227707      -4.93142445
C        7.41764300       3.83657499      -5.71723865
Br       9.04991189       3.05240739      -6.26116450
C        7.11680511       5.14046945      -6.10567821
C        5.91124519       5.71937154      -5.70382743
Cl       5.57732997       7.33836554      -6.20407723
C        5.00784249       4.99672770      -4.91621803
O        3.83343168       5.59580242      -4.53795151
H        2.31545180       1.28556631       0.68549819
H        3.72423060       2.73315921      -0.73770796
H        1.04180050       2.12524705      -4.03962529
H       -0.38425997       0.68271510      -2.62250086
H        4.74994123       1.85401698      -3.42193643
H        6.78019382       2.08625658      -4.63574431
H        7.81322996       5.70824193      -6.71772067
H        3.32144559       4.95297829      -3.99571566
C       -0.88179301      -0.88179301      -0.88179301
C       -2.14048365      -1.27261581      -0.42854481
C       -2.94135085      -2.08677169      -1.23282044
C       -2.49548153      -2.49785451      -2.49306763
C       -1.22670236      -2.10883108      -2.93076948
C       -0.41908901      -1.29731421      -2.12913852
N       -3.27654819      -3.34505325      -3.29207173
C       -4.31361961      -2.80948996      -3.85802441
C       -5.21865234      -3.61449858      -4.70456164
C       -6.30797227      -2.96285838      -5.29269138
C       -7.18890346      -3.68752271      -6.09503048
Br      -8.66090934      -2.80935786      -6.89321658
C       -6.99784741      -5.05010930      -6.31499607
C       -5.91063643      -5.69842563      -5.72538209
Cl      -5.71078935      -7.38832643      -6.02065697
C       -5.01577917      -4.98664400      -4.91836504
O       -3.95925181      -5.65441394      -4.35351987
H       -2.50120871      -0.96281215       0.54850095
H       -3.91286758      -2.41157459      -0.87065560
H       -0.86232451      -2.44704854      -3.89729979
H        0.56646611      -1.00569815      -2.48172395
H       -4.56025134      -1.73872685      -3.72691645
H       -6.47192040      -1.90028608      -5.12998822
H       -7.68838727      -5.60993145      -6.94087384
H       -3.43571643      -5.00969579      -3.82472731
C       -0.88179301       0.88179301       0.88179301
C       -0.58313021       1.02267886       2.23583520
C       -1.39645661       1.82220128       3.04228509
C       -2.49619716       2.49279461       2.49741189
C       -2.79166957       2.33373076       1.14090260
C       -1.98388342       1.53216572       0.32949260
N       -3.33975480       3.26795826       3.30596011
C       -2.86852666       4.40933082       3.70327650
C       -3.66338104       5.29790135       4.57643017
C       -3.09312537       6.51916315       4.95123351
C       -3.80831462       7.38473319       5.77840883
Br      -3.04138659       9.03707793       6.28501927
C       -5.08017613       7.04659224       6.23618440
C       -5.64634870       5.82620849       5.86188696
Cl      -7.22349205       5.44355728       6.45272343
C       -4.94355307       4.94591947       5.03131568
O       -5.52836507       3.75489942       4.68392113
H        0.26692051       0.50754696       2.67489347
H       -1.17851773       1.91381660       4.10276344
H       -3.66059899       2.82975140       0.71632245
H       -2.22823956       1.41553706      -0.72282063
H       -1.86010362       4.75702926       3.40876177
H       -2.10109180       6.79746976       4.60363314
H       -5.63261184       7.72515707       6.88142365
H       -4.90410628       3.26453308       4.10150018
C        0.88179301      -0.88179301       0.88179301
C        0.29438578      -1.71580392       1.83145457
C        1.10336445      -2.51442353       2.64315500
C        2.49425853      -2.49392041       2.49822473
C        3.07131480      -1.64454614       1.55044198
C        2.26749117      -0.84027266       0.73777791
N        3.31655438      -3.26417595       3.33294284
C        3.33380059      -4.54123898       3.10609441
C        4.14875245      -5.45058838       3.93837173
C        4.12708126      -6.81339722       3.62304354
C        4.87858863      -7.70598180       4.38688621
Br       4.85326789      -9.54823353       3.96198236
C        5.64695378      -7.25695595       5.45904305
C        5.66547349      -5.89633089       5.77263976
Cl       6.62834479      -5.38085795       7.11057001
C        4.91850064      -4.98619605       5.01609153
O        4.95816717      -3.65698968       5.35202876
H       -0.78455959      -1.74262091       1.95745860
H        0.64796292      -3.14722953       3.39990533
H        4.15284597      -1.60286363       1.45096325
H        2.73091594      -0.18250398       0.00753606
H        2.74107681      -4.99540228       2.28941555
H        3.53169721      -7.18016614       2.79033136
H        6.23018516      -7.95765848       6.05134893
H        4.38348678      -3.16385985       4.72279291
