122
Properties=species:S:1:pos:R:3 pbc="F F F"
C        1.79169703       1.79169703      -1.79169703
C        2.94654427       2.36374471      -1.26106736
C        3.74646054       3.17740931      -2.06678521
C        3.40487896       3.40797348      -3.40326330
C        2.23814464       2.83813755      -3.91973281
C        1.43158876       2.02606567      -3.11759939
N        4.18132191       4.25262969      -4.20943365
C        5.32338077       3.78199088      -4.60547440
C        6.23191199       4.59398593      -5.44152671
C        7.43972453       4.01218110      -5.84132847
C        8.32754703       4.74647901      -6.62714268
Br       9.95981592       3.96231141      -7.17106852
C        8.02670914       6.05037347      -7.01558223
C        6.82114921       6.62927556      -6.61373145
Cl       6.48723400       8.24826957      -7.11398126
C        5.91774652       5.90663172      -5.82612205
O        4.74333571       6.50570644      -5.44785554
H        3.22535583       2.19547033      -0.22440583
H        4.63413463       3.64306324      -1.64761198
H        1.95170453       3.03515107      -4.94952931
H        0.52564406       1.59261912      -3.53240488
H        5.65984526       2.76392101      -4.33184046
H        7.69009784       2.99616060      -5.54564833
H        8.72313399       6.61814596      -7.62762470
H        4.23134961       5.86288231      -4.90561968
C       -1.79169703      -1.79169703      -1.79169703
C       -3.02654435      -2.22896177      -1.31585022
C       -3.82714971      -3.04301668      -2.12048867
C       -3.40525570      -3.40782137      -3.40303866
C       -2.15985176      -2.97249328      -3.86366996
C       -1.35250731      -2.16081922      -3.06192728
N       -4.18504611      -4.25449152      -4.20384762
C       -5.25124194      -3.73269064      -4.72691347
C       -6.15734272      -4.53933793      -5.57074397
C       -7.27946393      -3.90238860      -6.11138157
C       -8.16241547      -4.62927070      -6.90948255
Br      -9.67877633      -3.77086387      -7.64355565
C       -7.94109100      -5.97971676      -7.17185708
C       -6.82112532      -6.61344236      -6.62958855
Cl      -6.58432930      -8.28870512      -6.97645040
C       -5.92378468      -5.89917580      -5.82753981
O       -4.83464047      -6.55252151      -5.30973571
H       -3.36843257      -1.95544389      -0.32135553
H       -4.77930485      -3.40397841      -1.74152659
H       -1.81326414      -3.27458497      -4.84853580
H       -0.38517284      -1.83289027      -3.43260495
H       -5.52273622      -2.67300369      -4.55986681
H       -7.46724773      -2.84945871      -5.91520034
H       -8.63335059      -6.54136518      -7.79418887
H       -4.31420283      -5.90803322      -4.77761556
C       -1.79169703       1.79169703       1.79169703
C       -1.47139695       1.96265475       3.13730465
C       -2.28459443       2.76205599       3.94400464
C       -3.40601717       3.40272196       3.40737661
C       -3.72283986       3.21360439       2.05957075
C       -2.91523252       2.41197105       1.24805024
N       -4.24895295       4.17726799       4.21716430
C       -3.79161349       5.33399052       4.58524204
C       -4.58677545       6.22396182       5.45668737
C       -4.03230580       7.46191374       5.79901456
C       -4.74823379       8.32948182       6.62345310
Br      -4.00267126      10.00431610       7.08620849
C       -6.00527634       7.97698571       7.11040279
C       -6.55567119       6.73999412       6.76849092
Cl      -8.11469251       6.33995391       7.39483840
C       -5.85192462       5.85742727       5.94114840
O       -6.42100661       4.64994692       5.62594415
H       -0.60432418       1.47098150       3.56992631
H       -2.04936174       2.87694280       4.99850531
H       -4.60817576       3.68609840       1.64211074
H       -3.17626988       2.27175408       0.20264410
H       -2.79516638       5.69429595       4.26614439
H       -3.05192723       7.75158530       5.42839425
H       -6.55835181       8.65720584       7.75334698
H       -5.79844459       4.16030153       5.04110548
C        1.79169703      -1.79169703       1.79169703
C        1.46241073      -1.97551025       3.13343537
C        2.27555137      -2.77486205       3.94024164
C        3.40598125      -3.40273267       3.40740182
C        3.73166679      -3.20077036       2.06357784
C        2.92413568      -2.39910641       1.25201172
N        4.24864249      -4.17702638       4.21771637
C        3.79745166      -5.34003714       4.57335726
C        4.59276144      -6.23059280       5.44407040
C        4.04527207      -7.47537443       5.77258760
C        4.76154008      -8.34377277       6.59585587
Br       4.02542388     -10.02780887       7.03996310
C        6.01204437      -7.98541606       7.09520441
C        6.55546342      -6.74162919       6.76706361
Cl       8.10649097      -6.33449168       7.40850217
C        5.85128239      -5.85811703       5.94110087
O        6.41341074      -4.64390280       5.63958415
H        0.58826633      -1.49386695       3.56309871
H        2.03312797      -2.89970328       4.99197859
H        4.62380854      -3.66321265       1.64936372
H        3.19209651      -2.24880881       0.20976274
H        2.80629948      -5.70550085       4.24380638
H        3.07003660      -7.76968666       5.39218351
H        6.56541348      -8.66632372       7.73716744
H        5.79158722      -4.15454128       5.05372311
C       -0.00445707       0.01189536      -1.78238275
H       -0.66409135       0.67374010      -2.43557963
H        0.65740317      -0.63156657      -2.45157240
C       -0.90989263      -0.90692880      -0.91072765
C        0.90977584       0.90977584      -0.90977584
C       -0.00465871       1.77757030       0.00794375
H       -0.66225468       2.44313916      -0.64384735
H        0.64322798       2.43503045       0.67728295
C       -1.78241447       0.00034974      -0.00472694
H       -2.45427497      -0.65498947       0.64260836
H       -2.43311707       0.67328779      -0.65473579
C       -0.91132561       0.90220522       0.91563759
C       -0.01476271      -0.02253852       1.78660255
H       -0.67934791      -0.69751639       2.42135241
H        0.63392994       0.61504881       2.47327442
C        0.01484550      -1.77751727      -0.01636693
H        0.67870853      -2.42144646      -0.68295456
H       -0.62264859      -2.45592969       0.64226336
C        1.78714474       0.01002794       0.00389507
H        2.44202412       0.67113390       0.66197326
H        2.45385902      -0.65136977      -0.64189061
C        0.91606151      -0.90478549       0.90901405
