153
Properties=species:S:1:pos:R:3 pbc="F F F"
C        0.00000000       0.00000000       0.00000000
C        0.88274328       0.88274328      -0.88274328
C        1.85682079       1.69141260      -0.29714478
C        2.65004006       2.50998346      -1.10103457
C        2.46302452       2.52349427      -2.48252290
O        3.27356781       3.35899781      -3.19604819
C        1.48763409       1.70819393      -3.06729655
C        1.23093292       1.70167103      -4.51952797
N        1.69387101       2.63637771      -5.28741999
N        1.35111257       2.52714372      -6.59441002
C        1.55526699       3.52131850      -7.52017611
O        1.20296320       3.33711344      -8.68956440
C        2.18706525       4.85353841      -7.07879086
H        2.24284584       5.50271070      -7.96404406
C        1.28559062       5.59298104      -6.09028673
O        3.47225862       4.70911555      -6.48102328
C        4.57333568       4.76915878      -7.29494135
C        4.55443995       4.50329095      -8.66823130
C        5.72726010       4.58820278      -9.42596862
C        6.93333977       4.92523927      -8.81863490
C        6.97130277       5.17331148      -7.44762703
C        5.79946830       5.09065711      -6.69075076
C        0.69680946       0.87898661      -2.26586384
H        2.00226137       1.69669230       0.78060401
H        3.41324933       3.14206866      -0.65407049
H        3.00178530       3.34366565      -4.14015432
H        0.59902444       0.88371419      -4.91380500
H        0.90494937       1.68397451      -6.94332630
H        1.27405571       5.12172671      -5.10216289
H        0.25541775       5.65337222      -6.45766938
H        1.65932937       6.61202182      -5.93237680
H        3.64616539       4.21667312      -9.18837210
H        5.69600010       4.38412860     -10.49401036
H        7.84353264       4.99157320      -9.41017546
H        7.91713559       5.43079856      -6.97751500
H       -0.07233643       0.24982051      -2.70637050
C        5.89379880       5.36263381      -5.27981829
C        5.97280059       5.59041429      -4.09816235
Br       6.10053981       5.95871607      -2.18752463
C       -0.88274328      -0.88274328      -0.88274328
C       -1.70667040      -0.29566282      -1.84304495
C       -2.52513454      -1.09980177      -2.63612177
C       -2.52329789      -2.48311779      -2.46262601
O       -3.35974713      -3.19689877      -3.27196792
C       -1.69273549      -3.06932087      -1.50106821
C       -1.66948801      -4.52385645      -1.25878747
N       -2.60116905      -5.29637488      -1.72012479
N       -2.47579045      -6.60551042      -1.39136544
C       -3.46283712      -7.53900355      -1.59492094
O       -3.26374519      -8.70990401      -1.25599183
C       -4.80547710      -7.10463419      -2.20928323
H       -5.44648618      -7.99566351      -2.26745091
C       -5.54561195      -6.13233250      -1.29091394
O       -4.67959327      -6.49293949      -3.48986470
C       -4.74254315      -7.29661140      -4.59828126
C       -4.46309408      -8.66732973      -4.59553839
C       -4.55216722      -9.41437063      -5.77489366
C       -4.90700901      -8.79863532      -6.97156961
C       -5.16883005      -7.42983689      -6.99357434
C       -5.08201547      -6.68366961      -5.81519110
C       -0.86363554      -2.26751039      -0.71051398
H       -1.72391717       0.78335122      -1.97778371
H       -3.16905874      -0.65166037      -3.38866938
H       -3.33250802      -4.14341851      -3.00967874
H       -0.84152077      -4.91619840      -0.63882445
H       -1.62488966      -6.95043200      -0.95692851
H       -5.08394562      -5.13976593      -1.27423375
H       -5.59224040      -6.51034302      -0.26387592
H       -6.56978600      -5.98084227      -1.65309972
H       -4.16245718      -9.19346782      -3.69528561
H       -4.33736684     -10.48060085      -5.75617137
H       -4.97653835      -9.38187866      -7.88686429
H       -5.44022076      -6.95306822      -7.93216016
H       -0.22263467      -2.70928182       0.04806191
C       -5.36868513      -5.27463550      -5.89293027
C       -5.60877097      -4.09456943      -5.95803683
Br      -5.99696947      -2.18650241      -6.06330862
C       -0.88274328       0.88274328       0.88274328
C       -1.36516390       0.38642360       2.09379067
C       -2.18502875       1.18547488       2.89055446
C       -2.52531099       2.47121244       2.47251825
O       -3.33915537       3.18413830       3.30532014
C       -2.03656942       2.96761668       1.25893847
C       -2.38484623       4.30999157       0.75729413
N       -3.36632337       4.98372330       1.26762205
N       -3.59991102       6.18605600       0.68669929
C       -4.71739712       6.94597234       0.93339215
O       -4.85123516       8.02708327       0.35132260
C       -5.79359623       6.42388937       1.90190891
H       -6.59670032       7.17343786       1.93946242
C       -6.45092432       5.15232593       1.36560815
O       -5.30293556       6.14859496       3.21086694
C       -5.34205128       7.15535209       4.14003244
C       -5.38268046       8.51783305       3.82544869
C       -5.42119603       9.48154608       4.83868940
C       -5.40511721       9.09614124       6.17595548
C       -5.34454008       7.74302704       6.50467417
C       -5.30820613       6.77995791       5.49271214
C       -1.20658611       2.17329470       0.46177910
H       -1.11498449      -0.61948549       2.42285065
H       -2.56408097       0.80826898       3.83703853
H       -3.57322130       4.03638860       2.87599537
H       -1.79296462       4.69700021      -0.09342121
H       -2.94169604       6.57347826       0.01707588
H       -5.78918343       4.28227146       1.42649041
H       -6.76715523       5.27521828       0.32408583
H       -7.33158015       4.90236611       1.96978173
H       -5.37664501       8.87413837       2.80042722
H       -5.45827910      10.53717756       4.57868241
H       -5.43617004       9.84732278       6.96178849
H       -5.32668739       7.44790840       7.55085336
H       -0.82999893       2.54251754      -0.48866189
C       -5.25225314       5.39631506       5.88768270
C       -5.20539251       4.23751418       6.21847054
Br      -5.12962284       2.36383116       6.75332651
C        0.88274328      -0.88274328       0.88274328
C        1.47912803      -2.02263846       0.34361168
C        2.26993618      -2.83754346       1.15357844
C        2.45570151      -2.51597815       2.49736203
O        3.23548104      -3.37004804       3.22308473
C        1.85922951      -1.36965864       3.03423642
C        2.00214691      -0.99622812       4.45375691
N        2.44830584      -1.84077590       5.32858698
N        2.49297405      -1.37780285       6.60188941
C        2.72472487      -2.17749450       7.69454224
O        2.73952992      -1.66974185       8.82036927
C        2.92871259      -3.69056656       7.50011537
H        3.08112098      -4.13437456       8.49410506
C        1.66583792      -4.35312264       6.94989783
O        4.01158438      -4.01710742       6.63370566
C        5.25154382      -4.19653975       7.18935225
C        5.65116678      -3.65782230       8.41697312
C        6.93876052      -3.89121520       8.91145579
C        7.84526937      -4.65247412       8.17947044
C        7.46788441      -5.17898819       6.94536869
C        6.18098116      -4.94780494       6.45209008
C        1.07352001      -0.54485741       2.22328249
H        1.33051254      -2.28828815      -0.70045104
H        2.74066231      -3.72679197       0.74193420
H        3.23184352      -3.08913071       4.16463103
H        1.67955602       0.02261583       4.73960343
H        2.33861648      -0.39360177       6.80003193
H        1.49126314      -4.10984827       5.89683390
H        0.77974925      -4.06225493       7.52445516
H        1.76611717      -5.44451550       6.99309532
H        4.99183149      -3.04068118       9.01869793
H        7.23339382      -3.47040963       9.87033561
H        8.84536416      -4.83329676       8.56662039
H        8.18182447      -5.76828087       6.37534382
H        0.59489336       0.34187640       2.63083761
C        5.84123451      -5.51995885       5.17505754
C        5.55669669      -5.99913776       4.10554279
Br       5.09662310      -6.77392951       2.37622789
