166
Properties=species:S:1:pos:R:3 pbc="F F F"
C        1.79264730       1.79264730      -1.79264730
C        2.76672481       2.60131663      -1.20704880
C        3.55994408       3.41988748      -2.01093859
C        3.37292854       3.43339830      -3.39242692
O        4.18347183       4.26890183      -4.10595221
C        2.39753812       2.61809795      -3.97720058
C        2.14083695       2.61157506      -5.42943200
N        2.60377504       3.54628174      -6.19732401
N        2.26101659       3.43704774      -7.50431405
C        2.46517102       4.43122253      -8.43008014
O        2.11286722       4.24701746      -9.59946843
C        3.09696928       5.76344243      -7.98869488
H        3.15274987       6.41261472      -8.87394808
C        2.19549465       6.50288506      -7.00019075
O        4.38216265       5.61901958      -7.39092731
C        5.48323970       5.67906281      -8.20484538
C        5.46434397       5.41319498      -9.57813532
C        6.63716413       5.49810680     -10.33587264
C        7.84324379       5.83514329      -9.72853892
C        7.88120680       6.08321551      -8.35753105
C        6.70937233       6.00056114      -7.60065479
Br       6.83392083       6.35966334      -5.73774164
C        1.60671349       1.78889063      -3.17576787
H        2.91216539       2.60659632      -0.12930002
H        4.32315336       4.05197268      -1.56397452
H        3.91168933       4.25356967      -5.05005835
H        1.50892846       1.79361821      -5.82370902
H        1.81485339       2.59387853      -7.85323032
H        2.18395973       6.03163073      -6.01206691
H        1.16532177       6.56327624      -7.36757341
H        2.56923339       7.52192585      -6.84228082
H        4.55606941       5.12657714     -10.09827612
H        6.60590413       5.29403263     -11.40391439
H        8.75343666       5.90147723     -10.32007949
H        8.82703962       6.34070258      -7.88741903
H        0.83756760       1.15972453      -3.61627452
C       -1.79264730      -1.79264730      -1.79264730
C       -1.66901825      -1.72564749      -3.18042450
C       -2.48676693      -2.51794864      -3.98605458
C       -3.42769082      -3.36655512      -3.40450782
O       -4.19472224      -4.10063709      -4.26296655
C       -3.54657703      -3.43435052      -2.01190909
C       -4.54107493      -4.29546751      -1.34530156
N       -5.52742814      -4.81607814      -2.00387451
N       -6.38692265      -5.55507776      -1.26037797
C       -7.60032348      -6.00403714      -1.72211306
O       -8.32371436      -6.66522600      -0.97041275
C       -8.04897728      -5.64917635      -3.15095296
H       -9.04370736      -6.09083380      -3.30477152
C       -8.24581546      -4.14178712      -3.31096788
O       -7.14466343      -6.08581597      -4.16163013
C       -7.33349855      -7.33071212      -4.70293721
C       -8.01712980      -8.37210138      -4.06644309
C       -8.16426915      -9.61440965      -4.69246477
C       -7.61852332      -9.83470549      -5.95369719
C       -6.91749305      -8.81282639      -6.59163391
C       -6.77215464      -7.57099402      -5.96743960
Br      -5.81085418      -6.22107757      -6.89939406
C       -2.72210528      -2.64881400      -1.20045270
H       -0.94623810      -1.05807948      -3.64374415
H       -2.39629640      -2.47429566      -5.06850850
H       -4.86828329      -4.59812666      -3.74890738
H       -4.42418803      -4.44642858      -0.25563909
H       -6.16210979      -5.79941965      -0.30043281
H       -7.29668567      -3.59661907      -3.33435265
H       -8.86144043      -3.73163175      -2.50309925
H       -8.73845427      -3.92770424      -4.26728155
H       -8.44456962      -8.26119947      -3.07515359
H       -8.70334106     -10.41300472      -4.18750535
H       -7.73521166     -10.80112803      -6.43865368
H       -6.48859632      -8.99218934      -7.57437557
H       -2.81253441      -2.68322445      -0.11780780
C       -1.79264730       1.79264730       1.79264730
C       -2.89963113       2.43615276       1.23930635
C       -3.69453274       3.25560069       2.04063672
C       -3.37751622       3.43485330       3.38638424
O       -4.20009861       4.25971494       4.09851234
C       -2.26860329       2.78482457       3.93940878
C       -1.87365399       2.95855141       5.34963861
N       -2.35762603       3.92096328       6.06879148
N       -1.88055237       3.98581999       7.33600602
C       -2.09956150       5.04896082       8.17795136
O       -1.61830709       5.02582711       9.31521891
C       -2.90993626       6.25903274       7.68013759
H       -2.94911629       6.99076569       8.49943069
C       -2.19244947       6.97202923       6.53409176
O       -4.22397818       5.92805362       7.24007773
C       -5.24138953       5.96823977       8.15751859
C       -5.06163452       5.85391961       9.54012014
C       -6.15812581       5.90577549      10.40724227
C       -7.44632172       6.05784431       9.90275998
C       -7.64282035       6.15295769       8.52617532
C       -6.54746286       6.10333265       7.65979274
Br      -6.88902292       6.24732017       5.79498272
C       -1.47469592       1.95488292       3.14179315
H       -3.14818772       2.31201026       0.18786375
H       -4.56056815       3.75956210       1.61897031
H       -3.83834846       4.37180952       5.00515936
H       -1.12274702       2.25234275       5.75116592
H       -1.31513355       3.23187251       7.71495619
H       -2.22602439       6.40107652       5.60055647
H       -1.14401999       7.17057676       6.78157466
H       -2.68657498       7.92744375       6.31942133
H       -4.08194869       5.71365635       9.98531764
H       -6.00222318       5.82113502      11.48049293
H       -8.29698836       6.09889247      10.57911255
H       -8.65172429       6.26612091       8.13731602
H       -0.60372178       1.45369242       3.55615245
C        1.79264730      -1.79264730       1.79264730
C        1.66189967      -1.73307960       3.18011097
C        2.47958250      -2.52532177       3.98586589
C        3.42750360      -3.36644257       3.40480759
O        4.19392550      -4.10097500       4.26342538
C        3.55353602      -3.42680534       2.01249529
C        4.55550766      -4.27975580       1.34658054
N        5.54117444      -4.79876555       2.00744080
N        6.40792166      -5.52988415       1.26457257
C        7.62124156      -5.97516505       1.73006707
O        8.35154587      -6.62910054       0.97870669
C        8.06114627      -5.62514440       3.16281592
H        9.05727177      -6.06267935       3.31936155
C        8.24978285      -4.11761509       3.33117252
O        7.15405526      -6.07117015       4.16688412
C        7.34635929      -7.31777443       4.70301417
C        8.03821101      -8.35266236       4.06480090
C        8.18839294      -9.59729954       4.68545109
C        7.63757102      -9.82646411       5.94289087
C        6.92840959      -8.81117811       6.58236565
C        6.78002195      -7.56701700       5.96354930
Br       5.80754425      -6.22642141       6.89736015
C        2.72919206      -2.64133189       1.20084803
H        0.93358609      -1.07134380       3.64313184
H        2.38360173      -2.48743639       5.06806243
H        4.87243302      -4.59262779       3.75025652
H        4.44469904      -4.42592607       0.25563058
H        6.18901409      -5.77059918       0.30234898
H        7.29788018      -3.57722039       3.35255682
H        8.86732960      -3.70048331       2.52835851
H        8.73667652      -3.90582969       4.29093385
H        8.46994665      -8.23479575       3.07618028
H        8.73385093     -10.39075356       4.17924665
H        7.75663620     -10.79467743       6.42367974
H        6.49559562      -8.99746921       7.56209640
H        2.82508691      -2.66997422       0.11850553
C       -0.00445707       0.01189536      -1.78238275
H       -0.66409135       0.67374010      -2.43557963
H        0.65740317      -0.63156657      -2.45157240
C       -0.90989263      -0.90692880      -0.91072765
C        0.90977584       0.90977584      -0.90977584
C       -0.00465871       1.77757030       0.00794375
H       -0.66225468       2.44313916      -0.64384735
H        0.64322798       2.43503045       0.67728295
C       -1.78241447       0.00034974      -0.00472694
H       -2.45427497      -0.65498947       0.64260836
H       -2.43311707       0.67328779      -0.65473579
C       -0.91132561       0.90220522       0.91563759
C       -0.01476271      -0.02253852       1.78660255
H       -0.67934791      -0.69751639       2.42135241
H        0.63392994       0.61504881       2.47327442
C        0.01484550      -1.77751727      -0.01636693
H        0.67870853      -2.42144646      -0.68295456
H       -0.62264859      -2.45592969       0.64226336
C        1.78714474       0.01002794       0.00389507
H        2.44202412       0.67113390       0.66197326
H        2.45385902      -0.65136977      -0.64189061
C        0.91606151      -0.90478549       0.90901405
