174
Properties=species:S:1:pos:R:3 pbc="F F F"
C        1.79264730       1.79264730      -1.79264730
C        2.76672481       2.60131663      -1.20704880
C        3.55994408       3.41988748      -2.01093859
C        3.37292854       3.43339830      -3.39242692
O        4.18347183       4.26890183      -4.10595221
C        2.39753812       2.61809795      -3.97720058
C        2.14083695       2.61157506      -5.42943200
N        2.60377504       3.54628174      -6.19732401
N        2.26101659       3.43704774      -7.50431405
C        2.46517102       4.43122253      -8.43008014
O        2.11286722       4.24701746      -9.59946843
C        3.09696928       5.76344243      -7.98869488
H        3.15274987       6.41261472      -8.87394808
C        2.19549465       6.50288506      -7.00019075
O        4.38216265       5.61901958      -7.39092731
C        5.48323970       5.67906281      -8.20484538
C        5.46434397       5.41319498      -9.57813532
C        6.63716413       5.49810680     -10.33587264
C        7.84324379       5.83514329      -9.72853892
C        7.88120680       6.08321551      -8.35753105
C        6.70937233       6.00056114      -7.60065479
C        1.60671349       1.78889063      -3.17576787
H        2.91216539       2.60659632      -0.12930002
H        4.32315336       4.05197268      -1.56397452
H        3.91168933       4.25356967      -5.05005835
H        1.50892846       1.79361821      -5.82370902
H        1.81485339       2.59387853      -7.85323032
H        2.18395973       6.03163073      -6.01206691
H        1.16532177       6.56327624      -7.36757341
H        2.56923339       7.52192585      -6.84228082
H        4.55606941       5.12657714     -10.09827612
H        6.60590413       5.29403263     -11.40391439
H        8.75343666       5.90147723     -10.32007949
H        8.82703962       6.34070258      -7.88741903
H        0.83756760       1.15972453      -3.61627452
C        6.80370282       6.27253783      -6.18972232
C        6.88270462       6.50031831      -5.00806638
Br       7.01044383       6.86862009      -3.09742866
C       -1.79264730      -1.79264730      -1.79264730
C       -1.38722402      -2.09532869      -3.09253753
C       -2.20107130      -2.88593581      -3.90376304
C       -3.41715745      -3.36394731      -3.41764900
O       -4.15817631      -4.12224035      -4.27790922
C       -3.81921850      -3.06176066      -2.11185748
C       -5.10588475      -3.52019618      -1.55576308
N       -6.04157355      -3.98367739      -2.32212985
N       -7.18504092      -4.33366580      -1.68367167
C       -8.35709487      -4.63618782      -2.33319099
O       -9.35380014      -4.93693027      -1.66862270
C       -8.41588012      -4.56377367      -3.86945280
H       -9.43882904      -4.82625363      -4.17423000
C       -8.19983487      -3.13391196      -4.36482363
O       -7.46738187      -5.40431142      -4.52041624
C       -7.84756215      -6.68242503      -4.83716071
C       -8.87770334      -7.38022540      -4.19774553
C       -9.20109180      -8.68492370      -4.58512808
C       -8.49058285      -9.31170823      -5.60463492
C       -7.44845374      -8.63618681      -6.23731281
C       -7.12653444      -7.33203826      -5.85201555
C       -3.00179736      -2.27745381      -1.29212081
H       -0.44595656      -1.71732643      -3.48477873
H       -1.89262238      -3.12902747      -4.91745071
H       -5.02073058      -4.33593115      -3.85865562
H       -5.24537543      -3.41775847      -0.46312179
H       -7.21972517      -4.37295766      -0.66927941
H       -7.15997847      -2.80793873      -4.25974018
H       -8.84115723      -2.42499541      -3.83001877
H       -8.42753576      -3.07003785      -5.43586645
H       -9.45006103      -6.94696636      -3.38389529
H      -10.00843262      -9.21297861      -4.08243990
H       -8.74466615     -10.32572694      -5.90460029
H       -6.89326135      -9.13260594      -7.02929393
H       -3.30796609      -2.02555032      -0.28005024
C       -6.04532403      -6.67805305      -6.54258589
C       -5.13981032      -6.13034043      -7.12093856
Br      -3.67567122      -5.24473546      -8.05608590
C       -1.79264730       1.79264730       1.79264730
C       -3.02919324       2.22895110       1.31694590
C       -3.82652732       3.04886165       2.11538118
C       -3.38389934       3.43514096       3.37971346
O       -4.21937124       4.24572401       4.09323063
C       -2.14464792       2.99259045       3.85559827
C       -1.61718481       3.39062934       5.17402985
N       -2.13603938       4.37622823       5.83511318
N       -1.52994634       4.65794359       7.01448845
C       -1.78678145       5.78881820       7.75087403
O       -1.18004094       5.96757510       8.81173706
C       -2.79788072       6.82421467       7.22701120
H       -2.83741509       7.64621439       7.95568318
C       -2.31374417       7.46058694       5.92423935
O       -4.09980288       6.29157948       7.00072717
C       -5.00258808       6.33346220       8.03109760
C       -4.65310969       6.41965183       9.38291276
C       -5.64103727       6.45752297      10.37258333
C       -6.98714109       6.39536345      10.02442146
C       -7.34995005       6.28912039       8.68288292
C       -6.36334271       6.25341286       7.69383269
C       -1.34651632       2.16270853       3.06214713
H       -3.37792969       1.94272046       0.32741157
H       -4.79271052       3.39216221       1.75422783
H       -3.77408901       4.51432122       4.92690711
H       -0.74062537       2.83237511       5.55325521
H       -0.83252387       4.02859962       7.40083876
H       -2.37964085       6.77393755       5.07407898
H       -1.27835065       7.80764336       6.01017741
H       -2.94818602       8.31770615       5.66754789
H       -3.61919313       6.45061441       9.71111514
H       -5.35415933       6.53033430      11.41935751
H       -7.75327443       6.42601836      10.79570058
H       -8.40272912       6.23539605       8.41703605
H       -0.37665873       1.82175835       3.41514958
C       -6.79329357       6.14919463       6.32347477
C       -7.15337742       6.06191186       5.17580002
Br      -7.73560256       5.92078301       3.32010701
C        1.79264730      -1.79264730       1.79264730
C        1.26849750      -2.34545549       2.96113725
C        2.07908207      -3.13615050       3.77553758
C        3.40881565      -3.36515861       3.42477950
O        4.13651861      -4.14162895       4.28017832
C        3.93054386      -2.81236799       2.24992479
C        5.33569917      -3.00186144       1.84428340
N        6.22066866      -3.44907890       2.67763323
N        7.47986579      -3.53884580       2.18366679
C        8.58680650      -3.77864259       2.96102459
O        9.69821642      -3.83584885       2.42528783
C        8.42690396      -3.93881991       4.48338272
H        9.42795746      -4.10582096       4.90553426
C        7.92659833      -2.64549323       5.12647890
O        7.54200311      -4.98996752       4.86013889
C        8.07035309      -6.23906411       5.05773069
C        9.27286498      -6.68428487       4.49852442
C        9.74028925      -7.97800721       4.75284712
C        9.00559698      -8.84534141       5.55598762
C        7.79572208      -8.42248540       6.10374588
C        7.32954128      -7.12942824       5.85161873
C        3.11858377      -2.02699476       1.42579345
H        0.23587394      -2.16284196       3.24934582
H        1.67897967      -3.57311224       4.68700864
H        5.07017738      -4.16979770       3.97534227
H        5.60291867      -2.71294886       0.81038816
H        7.65605620      -3.41487555       1.19103050
H        6.87232323      -2.44968068       4.90565348
H        8.51575693      -1.78244993       4.79796456
H        7.99577102      -2.71900348       6.21866556
H        9.87485184      -6.05687504       3.84919580
H       10.68000269      -8.30826861       4.31557984
H        9.37171621      -9.85028858       5.75298859
H        7.22329268      -9.10600330       6.72586525
H        3.51486707      -1.58196665       0.51673294
C        6.07699878      -6.74189804       6.44706616
C        5.02799444      -6.41734149       6.94575337
Br       3.33184315      -5.89256100       7.75208843
C       -0.00445707       0.01189536      -1.78238275
H       -0.66409135       0.67374010      -2.43557963
H        0.65740317      -0.63156657      -2.45157240
C       -0.90989263      -0.90692880      -0.91072765
C        0.90977584       0.90977584      -0.90977584
C       -0.00465871       1.77757030       0.00794375
H       -0.66225468       2.44313916      -0.64384735
H        0.64322798       2.43503045       0.67728295
C       -1.78241447       0.00034974      -0.00472694
H       -2.45427497      -0.65498947       0.64260836
H       -2.43311707       0.67328779      -0.65473579
C       -0.91132561       0.90220522       0.91563759
C       -0.01476271      -0.02253852       1.78660255
H       -0.67934791      -0.69751639       2.42135241
H        0.63392994       0.61504881       2.47327442
C        0.01484550      -1.77751727      -0.01636693
H        0.67870853      -2.42144646      -0.68295456
H       -0.62264859      -2.45592969       0.64226336
C        1.78714474       0.01002794       0.00389507
H        2.44202412       0.67113390       0.66197326
H        2.45385902      -0.65136977      -0.64189061
C        0.91606151      -0.90478549       0.90901405
