174
Properties=species:S:1:pos:R:3 pbc="F F F"
C        1.79061939       1.79061939      -1.79061939
C        2.87845059       1.23996912      -2.45649093
C        3.68539568       2.05136187      -3.26435828
C        3.42513520       3.42410708      -3.41523732
C        2.32019462       3.95131914      -2.73069279
C        1.50603423       3.14307597      -1.92652459
N        4.26212984       4.24635283      -4.22496994
C        5.34735748       3.72401899      -5.05510798
H        6.00024758       3.11044110      -4.42185654
C        4.83578567       2.93184939      -6.26049311
C        3.62331172       3.24256076      -6.90568282
C        3.17383881       2.48795450      -7.99312185
C        3.93829332       1.42265678      -8.45877257
C        5.14904627       1.10681394      -7.84946716
C        5.59417905       1.85746886      -6.75721341
C        6.06145973       4.98442277      -5.44715569
C        5.37615131       6.07476281      -5.10375537
O        5.69543579       7.39048596      -5.26361721
C        4.19404305       5.63204334      -4.33111354
O        3.41750050       6.45160731      -3.86980196
C        7.42141098       4.93167369      -6.02129120
O        7.96018386       3.83798968      -6.19301614
C        8.15889867       6.21058542      -6.32050530
H        3.11265782       0.18322073      -2.35665834
H        4.52357121       1.56798678      -3.75697717
H        2.04697240       4.99949640      -2.80604290
H        0.65542877       3.58687124      -1.41524602
H        2.99992084       4.06524120      -6.56096729
H        2.22643529       2.73824573      -8.46395474
H        5.75600464       0.28281015      -8.21563405
H        6.54983395       1.60001316      -6.30145303
H        4.97069998       7.88791228      -4.82693155
H        8.28550714       6.79482228      -5.40477256
H        7.63117615       6.78666244      -7.08402163
H        9.15632670       5.96956788      -6.70162819
C        3.47365936       0.64382750      -9.57731637
C        3.08452842      -0.00844202     -10.51409681
Br       2.45533660      -1.06310667     -12.02879154
C       -1.79061939      -1.79061939      -1.79061939
C       -2.59365188      -2.76687296      -1.21438581
C       -3.40114854      -3.57413918      -2.02582811
C       -3.41539419      -3.42585336      -3.42323205
C       -2.59421803      -2.43205401      -3.97593451
C       -1.78949224      -1.61760370      -3.16853885
N       -4.22653392      -4.26376341      -4.24315527
C       -5.19007660      -5.22651733      -3.70989053
H       -4.66989973      -5.87170882      -2.99093667
C       -6.40580079      -4.54944438      -3.07288300
C       -6.91271090      -3.32079870      -3.53804571
C       -8.01381977      -2.71836801      -2.92272737
C       -8.63137593      -3.34411288      -1.84423385
C       -8.16035278      -4.56765660      -1.37731798
C       -7.05440086      -5.16582066      -1.98863980
C       -5.53979326      -6.01568318      -4.93756175
C       -5.04859743      -5.46073325      -6.04533882
O       -5.12810294      -5.88191327      -7.33952276
C       -4.21244972      -4.31105340      -5.63369680
O       -3.61822873      -3.65104242      -6.46963862
C       -6.23529069      -7.31396003      -4.82512515
O       -6.54328006      -7.73719964      -3.71070998
C       -6.49342700      -8.13558538      -6.06097700
H       -2.60189968      -2.91329762      -0.13733960
H       -4.00443573      -4.32274631      -1.52135312
H       -2.55889004      -2.24813998      -5.04548169
H       -1.16981255      -0.85465542      -3.63307805
H       -6.44763042      -2.80355182      -4.37494709
H       -8.37623421      -1.76172271      -3.29067884
H       -8.64536996      -5.06671860      -0.54236027
H       -6.70827012      -6.12878462      -1.61424539
H       -4.58930355      -5.24258861      -7.85365165
H       -5.54791236      -8.38828399      -6.54890562
H       -7.15714074      -7.60063939      -6.74408009
H       -6.98040853      -9.07300791      -5.77410633
C       -9.76399098      -2.72192766      -1.20888459
C      -10.71255609      -2.20084753      -0.67677958
Br     -12.24630564      -1.35830504       0.18358921
C       -1.79061939       1.79061939       1.79061939
C       -1.21467335       2.59110840       2.76912890
C       -2.02611526       3.39861191       3.57638866
C       -3.42324917       3.41538992       3.42584051
C       -3.97566508       2.59674743       2.42979404
C       -3.16825349       1.79203318       1.61534812
N       -4.24321623       4.22650025       4.26373612
C       -3.70995421       5.18759151       5.22893873
H       -2.99291048       4.66518245       5.87445228
C       -3.06985007       6.40337629       4.55490181
C       -3.53216897       6.91305725       3.32632909
C       -2.91406377       8.01414044       2.72671094
C       -1.83558821       8.62890402       3.35523043
C       -1.37144908       8.15511539       4.57876289
C       -1.98555871       7.04918959       5.17411302
C       -4.93834317       5.53802790       6.01666712
C       -6.04601148       5.04955648       5.45910153
O       -7.34075204       5.13049343       5.87829349
C       -5.63385457       4.21461730       4.30872806
O       -6.46968474       3.62284744       3.64637759
C       -4.82689646       6.23121532       7.31626409
O       -3.71267395       6.53668537       7.74183036
C       -6.06366903       6.49003191       8.13628844
H       -0.13785647       2.59735176       2.91732866
H       -1.52188137       3.99984616       4.32680763
H       -5.04496582       2.56347300       2.24407289
H       -3.63255503       1.17436449       0.85062651
H       -4.36898138       6.45019557       2.80695238
H       -3.27985378       8.37872186       1.77006012
H       -0.53651793       8.63794665       5.07998425
H       -1.61330949       6.70087094       6.13711971
H       -7.85471339       4.59358385       5.23724657
H       -6.55355724       5.54490593       8.38663881
H       -6.74480793       7.15573835       7.60131394
H       -5.77753854       6.97500848       9.07497574
C       -1.19736823       9.76149280       2.73594219
C       -0.66285900      10.71003590       2.21728830
Br       0.20139722      12.24374987       1.37866882
C        1.79061939      -1.79061939       1.79061939
C        2.59607551      -1.21411880       2.76471634
C        3.40382676      -2.02553305       3.57175602
C        3.42666995      -3.42198982       3.41581983
C        2.60300198      -3.97496680       2.42423778
C        1.78835642      -3.16866398       1.61861440
N        4.26529261      -4.23888528       4.22927470
C        5.04523383      -3.72584763       5.35540299
H        5.65046483      -2.88290937       4.99917102
C        4.16733408      -3.31949132       6.54130276
C        2.95694329      -3.97384634       6.84076568
C        2.16778764      -3.56677544       7.92035207
C        2.58626313      -2.51021433       8.72324521
C        3.78750607      -1.85906755       8.45875374
C        4.57249073      -2.26206790       7.37430269
C        5.93572164      -4.89394295       5.66337360
C        5.57693162      -5.98713308       4.99060480
O        6.14187745      -7.22783683       4.97982467
C        4.48332077      -5.60385537       4.07002379
O        3.99887827      -6.42770306       3.31232844
C        7.12720455      -4.72686442       6.52030691
O        7.37515775      -3.61906333       6.99696860
C        8.06066777      -5.88831657       6.74100504
H        2.60808066      -0.13665865       2.90779758
H        4.01517395      -1.52017011       4.31319110
H        2.55603920      -5.04579576       2.25067675
H        1.15976484      -3.63418499       0.86359619
H        2.59942526      -4.79889774       6.22780633
H        1.22956819      -4.07801569       8.12105189
H        4.12515449      -1.04034523       9.08894912
H        5.51438706      -1.74577360       7.19113949
H        5.63251243      -7.73872298       4.31430840
H        8.47232685      -6.22672752       5.78604761
H        7.54421945      -6.70143625       7.25620452
H        8.89750909      -5.56290241       7.36711128
C        1.77174786      -2.08937732       9.83367805
C        1.08959133      -1.73692632      10.76366555
Br      -0.01339810      -1.16704287      12.26737669
C       -0.00445707       0.01189536      -1.78238275
H       -0.66409135       0.67374010      -2.43557963
H        0.65740317      -0.63156657      -2.45157240
C       -0.90989263      -0.90692880      -0.91072765
C        0.90977584       0.90977584      -0.90977584
C       -0.00465871       1.77757030       0.00794375
H       -0.66225468       2.44313916      -0.64384735
H        0.64322798       2.43503045       0.67728295
C       -1.78241447       0.00034974      -0.00472694
H       -2.45427497      -0.65498947       0.64260836
H       -2.43311707       0.67328779      -0.65473579
C       -0.91132561       0.90220522       0.91563759
C       -0.01476271      -0.02253852       1.78660255
H       -0.67934791      -0.69751639       2.42135241
H        0.63392994       0.61504881       2.47327442
C        0.01484550      -1.77751727      -0.01636693
H        0.67870853      -2.42144646      -0.68295456
H       -0.62264859      -2.45592969       0.64226336
C        1.78714474       0.01002794       0.00389507
H        2.44202412       0.67113390       0.66197326
H        2.45385902      -0.65136977      -0.64189061
C        0.91606151      -0.90478549       0.90901405
