145
Properties=species:S:1:pos:R:3 pbc="F F F"
C        0.00000000       0.00000000       0.00000000
C        0.88071537       0.88071537      -0.88071537
C        1.96854657       0.33006510      -1.54658691
C        2.77549165       1.14145785      -2.35445426
C        2.51523117       2.51420306      -2.50533330
C        1.41029060       3.04141511      -1.82078877
C        0.59613021       2.23317194      -1.01662057
N        3.35222581       3.33644880      -3.31506591
C        4.43745346       2.81411497      -4.14520396
H        5.09034355       2.20053708      -3.51195252
C        3.92588164       2.02194537      -5.35058908
C        2.71340770       2.33265673      -5.99577880
C        2.26393479       1.57805047      -7.08321782
C        3.02838929       0.51275275      -7.54886854
Br       2.41858043      -0.50942178      -9.01690143
C        4.23914224       0.19690991      -6.93956313
C        4.68427502       0.94756484      -5.84730938
C        5.15155571       4.07451874      -4.53725167
C        4.46624729       5.16485878      -4.19385135
O        4.78553177       6.48058194      -4.35371318
C        3.28413903       4.72213932      -3.42120951
O        2.50759647       5.54170329      -2.95989794
C        6.51150695       4.02176967      -5.11138717
O        7.05027983       2.92808565      -5.28311212
C        7.24899465       5.30068139      -5.41060127
H        2.20275380      -0.72668329      -1.44675432
H        3.61366718       0.65808276      -2.84707315
H        1.13706838       4.08959238      -1.89613888
H       -0.25447526       2.67696721      -0.50534199
H        2.09001681       3.15533718      -5.65106327
H        1.31653127       1.82834171      -7.55405072
H        4.84610062      -0.62709388      -7.30573002
H        5.63992993       0.69010913      -5.39154901
H        4.06079596       6.97800826      -3.91702753
H        7.37560311       5.88491826      -4.49486853
H        6.72127213       5.87675841      -6.17411761
H        8.24642268       5.05966386      -5.79172417
C       -0.88071537      -0.88071537      -0.88071537
C       -0.50100317      -2.18844255      -1.15575285
C       -1.31180246      -2.99462420      -1.96497710
C       -2.50872194      -2.50818023      -2.51786536
C       -2.86569463      -1.18424249      -2.22255736
C       -2.06174679      -0.37560765      -1.40856828
N       -3.31889457      -3.32964391      -3.35520205
C       -3.05645861      -4.74920608      -3.59110768
H       -2.01809798      -4.85565258      -3.92908258
C       -3.33152901      -5.61053955      -2.35634753
C       -4.33343981      -5.28722956      -1.42117385
C       -4.54785077      -6.08430742      -0.29304489
C       -3.77346705      -7.22299582      -0.09354772
Br      -4.06132283      -8.29841945       1.43368221
C       -2.78910579      -7.57376181      -1.01274769
C       -2.57036952      -6.77186274      -2.13691698
C       -3.99142019      -5.04465712      -4.72724880
C       -4.82957956      -4.03494166      -4.96043621
O       -5.79999514      -3.91001997      -5.90981177
C       -4.43679810      -2.91707401      -4.07361575
O       -5.03425996      -1.85481770      -4.12012005
C       -3.84124152      -6.27927423      -5.52414805
O       -2.94882250      -7.07695586      -5.23569925
C       -4.72852733      -6.51297151      -6.71877846
H        0.42197942      -2.59472707      -0.75007717
H       -0.96327477      -4.00626839      -2.14927993
H       -3.78081231      -0.73985146      -2.60213586
H       -2.37396930       0.64425397      -1.19811862
H       -4.95087933      -4.39981526      -1.54572267
H       -5.31700551      -5.80437369       0.42245551
H       -2.18848660      -8.46808376      -0.86816640
H       -1.80191881      -7.07016996      -2.84949930
H       -6.15443077      -3.00133991      -5.80006106
H       -4.59196641      -5.71234049      -7.45108300
H       -5.77361746      -6.58859086      -6.40993982
H       -4.44420401      -7.45469066      -7.19891602
C       -0.88071537       0.88071537       0.88071537
C       -0.43751385       2.13885596       1.26882876
C       -1.24850176       2.94515937       2.07774262
C       -2.50938522       2.50759477       2.51778754
C       -2.92959716       1.23305589       2.10984143
C       -2.12526051       0.42508745       1.29557476
N       -3.32069896       3.32726185       3.35577972
C       -2.98437318       4.70731767       3.70508154
H       -1.96700767       4.72019266       4.11563281
C       -3.11797577       5.66312169       2.51731863
C       -4.07194917       5.47023675       1.49965731
C       -4.15662186       6.35104537       0.41753585
C       -3.29875281       7.44428035       0.34697743
Br      -3.41121712       8.63290702      -1.11806407
C       -2.35938788       7.66673266       1.34949475
C       -2.27044690       6.78108153       2.42762082
C       -3.97427897       4.99267275       4.79637440
C       -4.88966403       4.03005561       4.90523778
O       -5.92905695       3.91134864       5.77942129
C       -4.50954455       2.94717015       3.97077315
O       -5.17584734       1.92770418       3.90564618
C       -3.80016160       6.16025173       5.68425047
O       -2.84059195       6.91159976       5.50928590
C       -4.75059377       6.37708978       6.83259376
H        0.53537659       2.50598047       0.95222094
H       -0.84914621       3.91650831       2.35316857
H       -3.89531389       0.82913133       2.39835441
H       -2.48720321      -0.55525671       0.99588745
H       -4.75226388       4.62119204       1.52296135
H       -4.89118226       6.17122255      -0.36348112
H       -1.69399784       8.52509843       1.30564049
H       -1.53520553       6.97943228       3.20695026
H       -6.33279843       3.03811962       5.58491369
H       -4.71644793       5.52354370       7.51539828
H       -5.76495580       6.54406174       6.46313061
H       -4.43998686       7.26421663       7.39360721
C        0.88071537      -0.88071537       0.88071537
C        2.11422674      -0.41384271       1.31712913
C        2.92074405      -1.22503621       2.12562350
C        2.51392733      -2.51547144       2.50536876
C        1.26387889      -2.95922113       2.04939446
C        0.45041894      -2.14960660       1.24589718
N        3.34883482      -3.34143274       3.31347297
C        4.60000963      -2.88123945       3.91552330
H        5.22645891      -2.45358001       3.12279423
C        4.37253705      -1.87759527       5.04828377
C        3.23688232      -1.92547292       5.87948800
C        3.04852759      -0.98257305       6.89410244
C        4.00064095       0.01092796       7.10029760
Br       3.74383267       1.28767073       8.46989812
C        5.14045188       0.06861980       6.30378321
C        5.32434866      -0.87038139       5.28441919
C        5.19851536      -4.17211424       4.39269651
C        4.33861991      -5.18622509       4.30011243
O        4.50905056      -6.50350808       4.60726824
C        3.12249871      -4.67805277       3.62693638
O        2.19016564      -5.42809897       3.39093309
C        6.62294941      -4.24486020       4.77685419
O        7.31459550      -3.22791103       4.71897108
C        7.22862301      -5.56900209       5.16265222
H        2.46298634       0.57669824       1.03653672
H        3.87566533      -0.80989204       2.43326572
H        0.87436678      -3.93878967       2.30964318
H       -0.51440794      -2.52646295       0.91577894
H        2.47134252      -2.68604417       5.73903058
H        2.15537757      -1.03155489       7.51199123
H        5.89313931       0.83557726       6.46717471
H        6.22868372      -0.81366133       4.67924302
H        3.67178382      -6.94181289       4.34223503
H        7.14650020      -6.27627093       4.33261878
H        6.74861039      -5.96154745       6.06199031
H        8.29309264      -5.42883928       5.37587878
