130
Properties=species:S:1:pos:R:3 pbc="F F F"
C        1.79168990       1.79168990      -1.79168990
C        3.17823917       1.70238591      -1.69349495
C        3.98423845       2.51184799      -2.49898781
C        3.40789986       3.40042397      -3.41419027
C        2.01181576       3.48919911      -3.49262956
C        1.20357888       2.68320541      -2.68603856
C        4.22494491       4.29696188      -4.23959211
C        5.17609087       3.94275048      -5.11720019
C        5.63024970       2.55258544      -5.49568718
O        5.23888893       1.48118530      -5.07942803
N        6.62004471       2.74866795      -6.44801693
C        6.82328084       4.09930290      -6.70514119
C        7.72575003       4.64512970      -7.59666113
C        7.76228735       6.03794066      -7.69842476
C        6.90578816       6.83336096      -6.91525610
Br       6.98375461       8.71702870      -7.08189300
C        5.99821194       6.26282712      -6.01670275
C        5.96841584       4.88240831      -5.92299993
H        3.64365150       1.00652033      -1.00078837
H        5.06510415       2.43011215      -2.41390485
H        1.54122137       4.18080573      -4.18807442
H        0.12272826       2.75787188      -2.76511619
H        3.98552402       5.34802522      -4.09844798
H        7.10643562       1.98082119      -6.88532378
H        8.38188204       4.02507746      -8.19635165
H        8.46080342       6.50332693      -8.39100457
H        5.34252743       6.88358211      -5.41668527
C       -1.79168990      -1.79168990      -1.79168990
C       -1.20598476      -2.63711142      -2.73102385
C       -2.01406775      -3.44160734      -3.53939916
C       -3.40671464      -3.41475733      -3.40104213
C       -3.98262777      -2.54970320      -2.46131346
C       -3.17699915      -1.74186429      -1.65395941
C       -4.28433300      -4.21117814      -4.26598777
C       -4.28140499      -5.54525873      -4.40937783
C       -3.40556094      -6.56007976      -3.71288163
O       -2.52571604      -6.37753369      -2.89625252
N       -3.81986000      -7.78775301      -4.20911657
C       -4.85486546      -7.64692089      -5.12593858
C       -5.50249648      -8.66036703      -5.80467735
C       -6.52319444      -8.29126333      -6.68419501
C       -6.86148916      -6.93645076      -6.85646530
Br      -8.25090378      -6.47563104      -8.05614149
C       -6.19390146      -5.92307596      -6.16076439
C       -5.18471327      -6.29795899      -5.29115183
H       -0.12599906      -2.68379374      -2.84116739
H       -1.54362380      -4.09874168      -4.26675567
H       -5.06312242      -2.50303632      -2.34394279
H       -3.63869645      -1.08291664      -0.92410325
H       -5.00442146      -3.61096097      -4.81661479
H       -3.40329397      -8.65707566      -3.91221097
H       -5.23572861      -9.70161496      -5.66596758
H       -7.05590649      -9.06317135      -7.23605710
H       -6.46080047      -4.88165244      -6.30034190
C       -1.79168990       1.79168990       1.79168990
C       -1.46844242       3.13462575       1.97105187
C       -2.27457688       3.94000466       2.78049271
C       -3.41265719       3.41018047       3.39967643
C       -3.71807108       2.05448372       3.22108962
C       -2.91183953       1.24620250       2.41478082
C       -4.25221906       4.21660363       4.29267620
C       -4.89549186       5.35370776       3.98684192
C       -4.94208590       6.07571755       2.66071888
O       -4.40336565       5.78366279       1.61247381
N       -5.75172357       7.17989592       2.88511009
C       -6.21513268       7.21772904       4.19486321
C       -7.04236866       8.17266055       4.75251166
C       -7.38792616       8.01396135       6.09676526
C       -6.90186852       6.91855983       6.83397687
Br      -7.39303305       6.73692583       8.65271744
C       -6.06410398       5.96116455       6.25247329
C       -5.72759324       6.12598129       4.92024955
H       -0.59836382       3.56756003       1.48503635
H       -2.01210500       4.98717625       2.90983990
H       -4.59082975       1.61766100       3.70161079
H       -3.16719428       0.19903709       2.27948497
H       -4.34201231       3.79797586       5.29200905
H       -5.96325804       7.84887013       2.16045243
H       -7.41252120       9.01339366       4.17739630
H       -8.03845011       8.74699212       6.56969269
H       -5.69369276       5.12069970       6.82840235
C        1.79168990      -1.79168990       1.79168990
C        3.06252624      -1.35421582       2.15737797
C        3.86973077      -2.16324259       2.96210088
C        3.40408159      -3.40299479       3.41543772
C        2.12892869      -3.83601357       3.02870217
C        1.32101063      -3.03035737       2.22145485
C        4.24411856      -4.29581072       4.22156962
C        4.80280795      -4.02270627       5.41052732
C        4.69586343      -2.75599548       6.22666342
O        4.09690969      -1.73105796       5.97153460
N        5.44533185      -3.00366939       7.36772834
C        5.99605019      -4.27963791       7.35203683
C        6.78915510      -4.85049349       8.32789227
C        7.23607334      -6.15552522       8.10705421
C        6.88084233      -6.84211302       6.93144987
Br       7.50474911      -8.60948853       6.66843867
C        6.07693004      -6.24751020       5.95330158
C        5.63821766      -4.95483373       6.18077269
H        3.43451318      -0.38757890       1.82886811
H        4.85858801      -1.80838381       3.24214933
H        1.75019586      -4.80080354       3.35910213
H        0.33135403      -3.37682281       1.93753951
H        4.38669714      -5.27471810       3.77058198
H        5.54958662      -2.32052396       8.10247001
H        7.05798516      -4.31458520       9.23074079
H        7.86281449      -6.63765548       8.85466496
H        5.80880882      -6.78385781       5.05012818
C       -0.00445707       0.01189536      -1.78238275
H       -0.66409135       0.67374010      -2.43557963
H        0.65740317      -0.63156657      -2.45157240
C       -0.90989263      -0.90692880      -0.91072765
C        0.90977584       0.90977584      -0.90977584
C       -0.00465871       1.77757030       0.00794375
H       -0.66225468       2.44313916      -0.64384735
H        0.64322798       2.43503045       0.67728295
C       -1.78241447       0.00034974      -0.00472694
H       -2.45427497      -0.65498947       0.64260836
H       -2.43311707       0.67328779      -0.65473579
C       -0.91132561       0.90220522       0.91563759
C       -0.01476271      -0.02253852       1.78660255
H       -0.67934791      -0.69751639       2.42135241
H        0.63392994       0.61504881       2.47327442
C        0.01484550      -1.77751727      -0.01636693
H        0.67870853      -2.42144646      -0.68295456
H       -0.62264859      -2.45592969       0.64226336
C        1.78714474       0.01002794       0.00389507
H        2.44202412       0.67113390       0.66197326
H        2.45385902      -0.65136977      -0.64189061
C        0.91606151      -0.90478549       0.90901405
