162
Properties=species:S:1:pos:R:3 pbc="F F F"
C        1.77673483       1.77673483      -1.77673483
C        1.53675836       3.09179498      -2.08132318
C        2.60384345       3.49131812      -2.92148122
C        3.45073582       2.40005136      -3.09826628
O        2.91854524       1.35781845      -2.37480303
C        4.64393430       2.34798459      -3.87286383
C        5.40499178       1.25745752      -4.06706606
C        5.24850323      -0.14734844      -3.55434488
C        5.48917766      -1.20462126      -4.64539321
C        5.42927021      -2.61144691      -4.04990498
C        6.83881459      -0.96837619      -5.33565996
C        6.90183348       0.42110807      -5.90364945
C        7.21156989       0.66728604      -7.18928538
C        7.16244134       1.95400167      -7.79283214
C        7.92532774       2.44621447      -8.84597991
C        7.50451952       3.77329735      -9.10693388
C        6.48928415       4.02425221      -8.21880339
Br       5.53912344       5.62361512      -8.09197660
O        6.26106143       2.93577376      -7.44472713
C        6.60355681       1.50667718      -4.92435803
O        7.32211241       2.48820079      -4.78081867
H        0.70225566       3.69085817      -1.74577091
H        2.74862566       4.46974629      -3.36043107
H        4.94243368       3.28573817      -4.34307535
H        4.25916272      -0.32824859      -3.13060529
H        5.96764315      -0.29154938      -2.73666232
H        4.68864976      -1.12143820      -5.39405355
H        6.21287451      -2.75989473      -3.29916560
H        5.55977344      -3.36853874      -4.83000094
H        4.46172596      -2.78893214      -3.56887237
H        7.66213277      -1.10068687      -4.62183911
H        6.98095559      -1.71943114      -6.12280796
H        7.48508754      -0.15968434      -7.83859075
H        8.71309132       1.90642337      -9.35358554
H        7.89635817       4.45524331      -9.84781033
C       -1.77673483      -1.77673483      -1.77673483
C       -3.14711084      -1.81115141      -1.75161426
C       -3.52422302      -2.76706747      -2.72535229
C       -2.36569377      -3.28030576      -3.30305394
O       -1.30284915      -2.64587129      -2.70244627
C       -2.27273963      -4.27068346      -4.32135962
C       -1.13225174      -4.78391142      -4.81335221
C        0.30118001      -4.48542532      -4.47125436
C        1.15016868      -5.75928840      -4.32082988
C        2.61736696      -5.39990391      -4.08519134
C        1.00607484      -6.65181131      -5.56036189
C       -0.43848223      -6.98801763      -5.80009113
C       -0.87703833      -8.25204125      -5.93906173
C       -2.24732212      -8.61745062      -6.04450240
C       -2.80499056      -9.70502818      -6.70750338
C       -4.20783329      -9.66002492      -6.51689255
C       -4.44214969      -8.56225486      -5.72793520
Br      -6.11865311      -7.99474786      -5.14131420
O       -3.27537416      -7.94564131      -5.42054685
C       -1.34598176      -5.80643094      -5.88217931
O       -2.15079522      -5.64841995      -6.79191670
H       -3.79656911      -1.22663232      -1.11568331
H       -4.53274049      -3.06110689      -2.98495565
H       -3.22306345      -4.63153722      -4.71664653
H        0.39823722      -3.91198574      -3.54777091
H        0.71681441      -3.85812591      -5.27144459
H        0.79380728      -6.31385533      -3.44121706
H        3.03451698      -4.85061726      -4.93604509
H        3.21875141      -6.30279000      -3.93719705
H        2.72583019      -4.77474172      -3.19275466
H        1.40686148      -6.14336075      -6.44678575
H        1.60213338      -7.56280839      -5.42365741
H       -0.15934866      -9.06764327      -5.93700202
H       -2.25400038     -10.43723896      -7.28186090
H       -4.94835012     -10.34240300      -6.90865870
C       -1.77673483       1.77673483       1.77673483
C       -2.84365813       1.34467281       2.52154558
C       -3.35482389       2.49818172       3.16363717
C       -2.57927588       3.58947555       2.78030203
O       -1.60896772       3.11296274       1.92923626
C       -2.73898509       4.94661223       3.17918540
C       -2.00488112       5.98358087       2.74105337
C       -0.85975812       6.02811584       1.76762571
C       -0.98503054       7.18421195       0.76070712
C        0.25463198       7.25370738      -0.13134712
C       -1.19751003       8.51545168       1.49313665
C       -2.40556739       8.43802595       2.38299766
C       -3.40802046       9.33320349       2.32691736
C       -4.61976831       9.22604153       3.06346531
C       -5.44300113      10.24517429       3.52934671
C       -6.54324563       9.64876790       4.19273722
C       -6.35571154       8.29409326       4.08253495
Br      -7.49629967       6.98878979       4.76962570
O       -5.22166510       8.03059584       3.38930137
C       -2.39899620       7.29431109       3.34128472
O       -2.62529487       7.42823849       4.53759850
H       -3.21166816       0.33130923       2.59590735
H       -4.20189406       2.54127820       3.83563076
H       -3.53574962       5.13597038       3.89952720
H       -0.76101940       5.10237743       1.19812259
H        0.06947061       6.13955684       2.34266987
H       -1.85390211       6.99189444       0.11546856
H        1.15730361       7.45345847       0.45599050
H        0.15216388       8.04960570      -0.87620618
H        0.40133097       6.30999511      -0.66699794
H       -0.31881990       8.76098906       2.10347606
H       -1.30494702       9.32216103       0.75722436
H       -3.32563897      10.18311584       1.65523913
H       -5.25314573      11.30382706       3.41612745
H       -7.36386615      10.14795611       4.68758956
C        1.77673483      -1.77673483       1.77673483
C        1.33517536      -2.80208748       2.57261368
C        2.49119693      -3.32425124       3.20119462
C        3.59235809      -2.59189284       2.76480253
O        3.12185189      -1.64787580       1.88143903
C        4.95310667      -2.76741146       3.14426458
C        5.98275439      -2.00126359       2.74549739
C        6.01642969      -0.80860749       1.83046249
C        6.88238832       0.33606111       2.38362240
C        6.97470555       1.47583190       1.36885463
C        8.28197928      -0.17559392       2.74852515
C        8.18721256      -1.30774921       3.73162922
C        8.85478089      -1.31394951       4.89941090
C        8.69723243      -2.30515400       5.90688873
C        9.63006594      -2.75065228       6.83680391
C        9.00707242      -3.73452405       7.64315428
C        7.71691491      -3.82938351       7.18604132
Br       6.41191394      -4.97129565       7.87150558
O        7.51454197      -2.96288083       6.16413952
C        7.30129692      -2.42957342       3.30372167
O        7.65157151      -3.60283063       3.33672972
H        0.31375884      -3.13484953       2.69027636
H        2.52869259      -4.14680643       3.90330401
H        5.15047278      -3.59922711       3.82154730
H        5.02122787      -0.40582517       1.63446638
H        6.41512267      -1.13668980       0.86094363
H        6.40149928       0.73027632       3.29004214
H        7.45606580       1.14589127       0.44197085
H        7.55664661       2.30986152       1.77445055
H        5.97823722       1.85344584       1.11687482
H        8.80802241      -0.52468637       1.85057624
H        8.87536504       0.65069327       3.15966065
H        9.53754886      -0.49997169       5.12647340
H       10.65462790      -2.41158028       6.90689206
H        9.44796807      -4.29999619       8.45144756
C       -0.00445707       0.01189536      -1.78238275
H       -0.66409135       0.67374010      -2.43557963
H        0.65740317      -0.63156657      -2.45157240
C       -0.90989263      -0.90692880      -0.91072765
C        0.90977584       0.90977584      -0.90977584
C       -0.00465871       1.77757030       0.00794375
H       -0.66225468       2.44313916      -0.64384735
H        0.64322798       2.43503045       0.67728295
C       -1.78241447       0.00034974      -0.00472694
H       -2.45427497      -0.65498947       0.64260836
H       -2.43311707       0.67328779      -0.65473579
C       -0.91132561       0.90220522       0.91563759
C       -0.01476271      -0.02253852       1.78660255
H       -0.67934791      -0.69751639       2.42135241
H        0.63392994       0.61504881       2.47327442
C        0.01484550      -1.77751727      -0.01636693
H        0.67870853      -2.42144646      -0.68295456
H       -0.62264859      -2.45592969       0.64226336
C        1.78714474       0.01002794       0.00389507
H        2.44202412       0.67113390       0.66197326
H        2.45385902      -0.65136977      -0.64189061
C        0.91606151      -0.90478549       0.90901405
