145
Properties=species:S:1:pos:R:3 pbc="F F F"
C        0.00000000       0.00000000       0.00000000
C        0.88144430       0.88144430      -0.88144430
C        2.13746891       1.27340842      -0.42989631
C        2.94696110       2.07426566      -1.24019442
C        2.50737682       2.50265318      -2.50783553
C        1.23636486       2.08878822      -2.94263104
C        0.42750335       1.28343249      -2.13481173
C        3.38376715       3.35282869      -3.43102387
H        2.78216917       3.92676973      -4.14586782
C        4.39399086       2.52482935      -4.16766711
C        5.63827621       2.76433600      -3.75332452
O        6.81738643       2.24425841      -4.19718834
C        5.57238319       3.87362621      -2.77630898
O        6.59135756       4.31493400      -2.27043660
N        4.24188060       4.27392450      -2.69004042
C        3.76028850       5.43479563      -2.02137319
C        4.56926535       6.15237228      -1.12817055
C        4.10900382       7.31419918      -0.49801767
C        2.82978928       7.79138834      -0.75992680
C        2.01223626       7.08926384      -1.63653403
Br       0.27932062       7.74365744      -2.02432840
C        2.46081554       5.91667336      -2.25276767
C        3.97148988       1.66208019      -5.28909450
O        2.80880057       1.72800192      -5.68975947
C        4.97528038       0.76742259      -5.96427455
H        2.49824504       0.96159195       0.54675753
H        3.92465803       2.36244028      -0.85990989
H        0.86989544       2.37661526      -3.92874703
H       -0.54862067       0.97091795      -2.49720496
H        7.51524433       2.72652168      -3.70383230
H        5.57537427       5.82233017      -0.88081841
H        4.75812739       7.84581481       0.19444559
H        2.48416040       8.70312554      -0.28015106
H        1.78330308       5.41435950      -2.93399477
H        5.71495729       1.36792515      -6.49821783
H        4.45762652       0.13411524      -6.69330320
H        5.45496485       0.11217837      -5.23294803
C       -0.88144430      -0.88144430      -0.88144430
C       -1.99358472      -1.51296688      -0.33422204
C       -2.80432217      -2.31389142      -1.14320758
C       -2.50806071      -2.50268767      -2.50711715
C       -1.38156803      -1.84963197      -3.03658411
C       -0.57240655      -1.04407063      -2.22927038
C       -3.39489065      -3.34729305      -3.42543601
H       -2.83789647      -3.72638736      -4.29052289
C       -4.60337155      -2.59157966      -3.89153611
C       -5.72944282      -3.06707908      -3.35941484
O       -7.01939118      -2.67662240      -3.56281961
C       -5.37374211      -4.27155528      -2.57702099
O       -6.23897962      -4.92291832      -2.01483022
N       -4.00470739      -4.47533265      -2.72580549
C       -3.28118058      -5.62779924      -2.30747749
C       -3.84648376      -6.56882028      -1.43450414
C       -3.14952035      -7.72041175      -1.05128858
C       -1.87301673      -7.96191471      -1.54617297
C       -1.29480489      -7.03691063      -2.40631861
Br       0.43052077      -7.36757237      -3.11025487
C       -1.97963056      -5.87482852      -2.77579749
C       -4.47000346      -1.53659471      -4.91606640
O       -3.38208072      -1.37446348      -5.47001775
C       -5.67162988      -0.72258916      -5.31275848
H       -2.24112291      -1.38869772       0.71674117
H       -3.66789969      -2.79262681      -0.68648170
H       -1.13299420      -1.94830344      -4.09396010
H        0.28914669      -0.54404640      -2.66460253
H       -7.56646429      -3.31828033      -3.06085368
H       -4.83835659      -6.42862854      -1.01153773
H       -3.61251064      -8.42904389      -0.36794208
H       -1.34353914      -8.86603754      -1.25786032
H       -1.48331554      -5.19211415      -3.45622766
H       -6.39853720      -1.35265399      -5.82990909
H       -5.35621716       0.07072753      -5.99955534
H       -6.11725308      -0.24765469      -4.43518349
C       -0.88144430       0.88144430       0.88144430
C       -0.30181609       1.66471723       1.87424033
C       -1.10837915       2.47698572       2.67605630
C       -2.50578987       2.50890306       2.50317260
C       -3.06600632       1.71185390       1.48992390
C       -2.25951529       0.90243998       0.68379229
C       -3.41154592       3.41233743       3.34373635
H       -4.43894055       3.03137823       3.38448794
C       -3.41422129       4.82674596       2.84552007
C       -2.80601105       5.65855421       3.69137147
O       -2.63768853       7.00881935       3.61232531
C       -2.44742419       4.87843019       4.89646400
O       -1.90857576       5.42048591       5.84766648
N       -2.91668509       3.58148303       4.70767740
C       -2.96310574       2.55762816       5.69572342
C       -2.26538879       2.67795977       6.90645961
C       -2.33941119       1.68840072       7.89340877
C       -3.12680868       0.56012552       7.69417021
C       -3.81911727       0.42106756       6.49784931
Br      -4.91758371      -1.09577373       6.22549649
C       -3.73186855       1.39774605       5.50064197
C       -4.13875636       5.17657641       1.60733180
O       -4.84032647       4.32317715       1.06305833
C       -4.06225055       6.57845841       1.06626856
H        0.77340456       1.65404063       2.03244339
H       -0.62524535       3.07938393       3.44237892
H       -4.14092764       1.72836419       1.30596591
H       -2.71655551       0.30076139      -0.09781465
H       -2.21749287       7.26756408       4.46054135
H       -1.62942025       3.53521281       7.11388980
H       -1.78193653       1.80760113       8.81995894
H       -3.19321354      -0.19682020       8.47104367
H       -4.29996493       1.24106752       4.59062491
H       -4.56604262       7.27107850       1.74397915
H       -4.57146446       6.61672583       0.09685467
H       -3.02093432       6.87029023       0.90886671
C        0.88144430      -0.88144430       0.88144430
C        0.68528767      -0.89693899       2.25854698
C        1.48761886      -1.70954018       3.06426213
C        2.50346682      -2.50909305       2.50530567
C        2.67791115      -2.47900872       1.11086425
C        1.87252033      -1.67007317       0.30315406
C        3.37636169      -3.43340557       3.35785244
H        4.33631668      -3.64603130       2.87245874
C        2.67901991      -4.71922680       3.68824061
C        2.36915717      -4.80472092       4.98205864
O        1.77142902      -5.82004190       5.66736227
C        2.94816449      -3.62029601       5.65385787
O        2.83862843      -3.47736906       6.86073067
N        3.63131102      -2.88640851       4.68812599
C        4.49792587      -1.78413824       4.93439320
C        4.52737639      -1.14164265       6.18078913
C        5.40471146      -0.08129918       6.43521003
C        6.28349183       0.35083436       5.44844694
C        6.26301564      -0.26942134       4.20559715
Br       7.47395288       0.28957035       2.86292393
C        5.37387524      -1.31588515       3.94049618
C        2.50963553      -5.75924820       2.65378084
O        3.05612101      -5.61021760       1.56022334
C        1.73096588      -7.00769345       2.96831819
H       -0.08771694      -0.28492559       2.71587082
H        1.30839096      -1.70133956       4.13727767
H        3.43558138      -3.10358499       0.63609137
H        2.02282970      -1.67018899      -0.77351644
H        1.79219100      -5.54444978       6.60895752
H        3.85847769      -1.43299741       6.98704775
H        5.39999055       0.40087815       7.41038422
H        6.97369449       1.16374863       5.65749115
H        5.40732142      -1.76845758       2.95587835
H        2.26524960      -7.60769418       3.70815650
H        1.62580223      -7.60405923       2.05518351
H        0.72770561      -6.75330361       3.31908204
