137
Properties=species:S:1:pos:R:3 pbc="F F F"
C        0.00000000       0.00000000       0.00000000
C        0.87234514       0.87234514      -0.87234514
C        2.21735725       0.67452023      -1.03474798
C        2.78050940       1.66136191      -1.90061343
C        1.84190706       2.55621977      -2.39307390
S        0.28169409       2.20077332      -1.73399008
C        1.96696609       3.67953355      -3.26106663
C        2.77941073       3.74012681      -4.33534196
C        3.69193212       2.68039683      -4.87837797
N        3.72718259       2.63861218      -6.34623704
C        4.67353885       1.61816287      -6.80112623
C        4.09692716       3.95299915      -6.87709239
C        3.05410547       4.97491768      -6.52692256
C        2.49976357       5.76142065      -7.46905715
C        1.47754272       6.73806887      -7.28446866
C        0.39616282       6.79294825      -6.41725056
C       -0.40672919       7.96303964      -6.58455034
C        0.07540758       8.74964431      -7.59554557
Br      -0.71759879      10.36289033      -8.12046773
S        1.45505521       8.11500269      -8.33576661
C        2.75770234       5.04392223      -5.06863367
O        2.56592447       6.10441302      -4.48355512
H        2.78032086      -0.11752794      -0.55699000
H        3.83586159       1.70732871      -2.13986619
H        1.33606664       4.53822281      -3.02952975
H        3.36531194       1.69334483      -4.53681827
H        4.69814839       2.85155858      -4.47291888
H        4.66450184       1.54544085      -7.89390522
H        4.38960972       0.63080674      -6.41908030
H        5.69914398       1.83046687      -6.47815882
H        5.07466058       4.27951245      -6.49504235
H        4.19574228       3.88248337      -7.96823544
H        2.85304402       5.64551640      -8.49290451
H        0.18349005       6.03149494      -5.67748922
H       -1.28258128       8.19500367      -5.99131576
C       -0.87234514      -0.87234514      -0.87234514
C       -2.23686353      -0.77022182      -0.91954012
C       -2.79291361      -1.73239880      -1.81717232
C       -1.83316359      -2.51164477      -2.44639237
S       -0.25595020      -2.08310513      -1.87740217
C       -1.94384100      -3.57466793      -3.38905734
C       -2.83212684      -3.62045439      -4.40229826
C       -3.85999068      -2.59932203      -4.79139422
N       -4.01427432      -2.45296236      -6.24479512
C       -5.06591940      -1.48002137      -6.54688719
C       -4.32751844      -3.75002508      -6.84947518
C       -3.18815139      -4.70911485      -6.65867947
C       -2.65395271      -5.37808550      -7.69820316
C       -1.55149020      -6.28166086      -7.66692919
C       -0.40376119      -6.31420850      -6.88839195
C        0.46698321      -7.40166018      -7.20618383
C       -0.03469020      -8.14771725      -8.23819001
Br       0.83040944      -9.65030228      -8.94586644
S       -1.51139722      -7.57170799      -8.82271929
C       -2.77300119      -4.86116469      -5.23609236
O       -2.45829112      -5.94317978      -4.75242170
H       -2.81679382      -0.06237725      -0.34061186
H       -3.85767262      -1.84408495      -1.98129891
H       -1.23534780      -4.39538623      -3.27308516
H       -3.58060439      -1.61721971      -4.39765095
H       -4.81569590      -2.87884740      -4.32808256
H       -5.14875584      -1.32689684      -7.62819524
H       -4.82579295      -0.50396359      -6.10974023
H       -6.04441310      -1.79593595      -6.16742062
H       -5.24537096      -4.18002489      -6.42381953
H       -4.51728634      -3.60774995      -7.92142480
H       -3.09470203      -5.21576024      -8.68100265
H       -0.18960242      -5.59459893      -6.10827287
H        1.40168123      -7.60643998      -6.69897940
C       -0.87234514       0.87234514       0.87234514
C       -0.71500932       2.22785174       0.98376440
C       -1.66979741       2.78269582       1.88999151
C       -2.54092448       1.83794262       2.41233362
S       -2.13264906       0.26403676       1.81977168
C       -3.61692294       1.95073786       3.33990547
C       -4.49293230       2.97453266       3.38741453
C       -4.56938104       4.18154365       2.49978224
N       -5.94572265       4.58436254       2.18194661
C       -5.94154298       5.79412881       1.35715617
C       -6.70086102       4.80915378       3.41700389
C       -6.82366830       3.53328873       4.19898868
C       -8.01994096       3.08515628       4.62514414
C       -8.28477772       1.87843886       5.33686367
C       -7.68630578       0.62771486       5.29234099
C       -8.28994710      -0.32199705       6.17291075
C       -9.34907443       0.23077568       6.84074735
Br     -10.39933750      -0.70815194       8.07457372
S       -9.62603670       1.84670469       6.43308312
C       -5.51414307       2.87958030       4.47653487
O       -5.25712456       2.34631321       5.55045483
H        0.04345676       2.79951960       0.46372008
H       -1.70201144       3.83448339       2.14656166
H       -3.73169373       1.12701993       4.04510554
H       -4.06606896       3.98030548       1.54910059
H       -4.02994593       5.00357817       2.98910177
H       -6.96284420       6.06865498       1.07234873
H       -5.39137802       5.62351658       0.42460218
H       -5.48675612       6.64682864       1.87418492
H       -6.22744181       5.57955028       4.04222329
H       -7.70007615       5.18523569       3.16114925
H       -8.89437415       3.69512527       4.40196550
H       -6.83820594       0.39258391       4.66168437
H       -7.95499252      -1.34479050       6.29353612
C        0.87234514      -0.87234514       0.87234514
C        0.54260298      -2.15143046       1.23259201
C        1.54676794      -2.72324006       2.07247673
C        2.62041150      -1.87398743       2.29680180
S        2.34882233      -0.35568287       1.51195230
C        3.81001014      -2.03217290       3.06538322
C        4.52480335      -3.17155966       3.15851648
C        4.27564686      -4.48917220       2.48588786
N        5.50598574      -5.16017747       2.04586860
C        5.18842942      -6.45781062       1.44658791
C        6.41853899      -5.32910215       3.17937756
C        6.85405036      -3.99321838       3.70867697
C        8.15698645      -3.69696842       3.87628650
C        8.70916183      -2.46261357       4.32830484
C        8.29815946      -1.14840522       4.15979696
C        9.17220932      -0.19756388       4.77108760
C       10.23814369      -0.81929809       5.36315569
Br      11.60579192       0.09644791       6.25641526
S       10.20669904      -2.50039866       5.19872680
C        5.71817642      -3.09466674       4.05741508
O        5.72573414      -2.37667640       5.05148206
H       -0.36708875      -2.65560068       0.93127100
H        1.47009131      -3.71730013       2.49566504
H        4.15962119      -1.14685719       3.59734082
H        3.65328179      -4.34480749       1.59738577
H        3.71396775      -5.12914487       3.17951323
H        6.09663111      -6.93899876       1.06821804
H        4.51903268      -6.33278445       0.58767964
H        4.70955297      -7.13799230       2.16022440
H        5.95161811      -5.91030993       3.98728733
H        7.29547495      -5.90141451       2.84957163
H        8.88409937      -4.47155403       3.63581152
H        7.39853941      -0.86668241       3.62725239
H        9.01323238       0.87366437       4.76417014
