166
Properties=species:S:1:pos:R:3 pbc="F F F"
C        1.78224917       1.78224917      -1.78224917
C        3.12726128       1.58442425      -1.94465200
C        3.69041342       2.57126593      -2.81051745
C        2.75181108       3.46612380      -3.30297792
S        1.19159812       3.11067735      -2.64389411
C        2.87687011       4.58943757      -4.17097065
C        3.68931475       4.65003083      -5.24524598
C        4.60183615       3.59030086      -5.78828199
N        4.63708661       3.54851621      -7.25614106
C        5.58344288       2.52806690      -7.71103025
C        5.00683118       4.86290317      -7.78699641
C        3.96400950       5.88482170      -7.43682659
C        3.40966760       6.67132468      -8.37896117
C        2.38744674       7.64797289      -8.19437269
C        1.30606685       7.70285227      -7.32715459
C        0.50317484       8.87294366      -7.49445437
C        0.98531160       9.65954834      -8.50544960
S        2.36495924       9.02490671      -9.24567063
C        3.66760637       5.95382625      -5.97853770
O        3.47582849       7.01431704      -5.39345914
H        3.69022489       0.79237609      -1.46689402
H        4.74576561       2.61723273      -3.04977021
H        2.24597066       5.44812683      -3.93943377
H        4.27521597       2.60324885      -5.44672230
H        5.60805241       3.76146261      -5.38282291
H        5.57440586       2.45534488      -8.80380925
H        5.29951374       1.54071077      -7.32898433
H        6.60904801       2.74037090      -7.38806284
H        5.98456460       5.18941647      -7.40494637
H        5.10564630       4.79238739      -8.87813946
H        3.76294804       6.55542042      -9.40280853
H        1.09339407       6.94139897      -6.58739325
H       -0.37267726       9.10490770      -6.90121978
C        0.37553122      10.90005006      -8.90908726
C       -0.13515984      11.93897026      -9.24713379
Br      -0.96090411      13.61881634      -9.79372645
C       -1.78224917      -1.78224917      -1.78224917
C       -3.15075905      -1.75035255      -1.75522593
C       -3.70447425      -2.69425065      -2.67347191
C       -2.74142378      -3.38886886      -3.39062015
S       -1.15983835      -2.90651069      -2.87982053
C       -2.84826899      -4.40746895      -4.38154040
C       -3.78558286      -4.44921995      -5.34978875
C       -4.88271731      -3.46571921      -5.63198248
N       -5.12099510      -3.25477683      -7.06597195
C       -6.23480981      -2.32497817      -7.26275205
C       -5.40016994      -4.53453924      -7.72202158
C       -4.20546456      -5.44027211      -7.63992111
C       -3.69412636      -6.02681583      -8.73901126
C       -2.54747668      -6.87110997      -8.81120567
C       -1.35991190      -6.88191816      -8.09424364
C       -0.45360855      -7.90431027      -8.51265404
C       -0.97109301      -8.62302097      -9.55619556
S       -2.50382540      -8.09740786     -10.03430331
C       -3.70836501      -5.64151078      -6.25009452
O       -3.31439912      -6.72829360      -5.84091196
H       -3.73407789      -1.10428037      -1.11113674
H       -4.76946340      -2.85381684      -2.78948831
H       -2.09421548      -5.19427380      -4.34504198
H       -4.63263829      -2.49125251      -5.20129630
H       -5.79723818      -3.81847514      -5.13662460
H       -6.38244851      -2.12222995      -8.32888153
H       -6.02128069      -1.36080548      -6.78712268
H       -7.17467103      -2.71101385      -6.85179687
H       -6.27136174      -5.03346533      -7.27410037
H       -5.65341192      -4.34875053      -8.77401071
H       -4.19396194      -5.83882147      -9.68839358
H       -1.14119358      -6.19214654      -7.28884617
H        0.51578135      -8.08452533      -8.06470625
C       -0.27834689      -9.71268941     -10.19363224
C        0.30182798     -10.62528672     -10.72748546
Br       1.23992167     -12.10087940     -11.59068096
C       -1.78224917       1.78224917       1.78224917
C       -1.56614533       3.12128843       1.96890377
C       -2.53759766       3.67941192       2.85518722
C       -3.47795068       2.75567565       3.28728647
S       -3.11609837       1.19336950       2.63670170
C       -4.59250367       2.87787200       4.16690267
C       -5.41989966       3.94087827       4.22381364
C       -5.39400057       5.19121583       3.39520260
N       -6.73185828       5.67728034       3.03260526
C       -6.62854479       6.92332132       2.27067392
C       -7.53639581       5.88042574       4.23990921
C       -7.75906168       4.57643902       4.95015708
C       -8.99523817       4.16903313       5.29568214
C       -9.35276590       2.94450752       5.93251890
C       -8.81322808       1.66889495       5.85395068
C       -9.50494229       0.70968768       6.65594290
C      -10.56862514       1.28236293       7.29932147
S      -10.74730369       2.92777231       6.96046057
C       -6.49782072       3.84536283       5.25678676
O       -6.32075168       3.24919801       6.31365499
H       -0.75611532       3.67837626       1.51500341
H       -2.53237355       4.71803690       3.16235811
H       -4.78170801       2.02821063       4.82361263
H       -4.85382346       5.01061717       2.46074647
H       -4.84114630       5.96085151       3.95034012
H       -7.61999804       7.26201584       1.95154610
H       -6.04107395       6.77005931       1.35807557
H       -6.16006089       7.72647115       2.85094971
H       -7.05868141       6.59536848       4.92487756
H       -8.50241825       6.31794167       3.95581324
H       -9.82724760       4.83205530       5.06187409
H       -7.94676140       1.42190784       5.25351704
H       -9.22568736      -0.33321111       6.74097397
C      -11.45634987       0.55730860       8.17101007
C      -12.19981933      -0.04992440       8.90104927
Br     -13.40194657      -1.03176881      10.08146092
C        1.78224917      -1.78224917       1.78224917
C        1.45883667      -3.06598842       2.13151244
C        2.46115665      -3.63669226       2.97434789
C        3.52740257      -2.78170835       3.21180188
S        3.25076255      -1.25994421       2.43546282
C        4.71279808      -2.93705640       3.98742385
C        5.43473303      -4.07216266       4.07769588
C        5.19919735      -5.38679974       3.39442191
N        6.43707296      -6.04638292       2.95828800
C        6.13250443      -7.34200985       2.34802575
C        7.34302552      -6.21685667       4.09684858
C        7.76575781      -4.88169834       4.63820164
C        9.06546176      -4.57774177       4.81674991
C        9.60607452      -3.34278383       5.28093397
C        9.18723115      -2.03027961       5.11856295
C       10.05056232      -1.07772253       5.74228802
C       11.11667790      -1.69622972       6.33740192
S       11.09787581      -3.37633895       6.16132182
C        6.62140454      -3.99331076       4.98525501
O        6.61727432      -3.28211554       5.98421482
H        0.55469393      -3.57426228       1.82053878
H        2.38841594      -4.63412832       3.39022430
H        5.05270403      -2.05304806       4.52777918
H        4.58191997      -5.24058869       2.50267845
H        4.63720909      -6.03531987       4.07980898
H        7.04653727      -7.81440010       1.97262261
H        5.46812867      -7.21565943       1.48542075
H        5.65345432      -8.03031062       3.05371680
H        6.87461036      -6.80675289       4.89756419
H        8.22608805      -6.78091256       3.76917255
H        9.79948649      -5.34569359       4.57599692
H        8.28934729      -1.75104381       4.58179519
H        9.88429797      -0.00757902       5.74157323
C       12.15877702      -0.98965080       7.03624072
C       13.03153503      -0.39789096       7.62151821
Br      14.44271093       0.55893465       8.56786241
C       -0.00445707       0.01189536      -1.78238275
H       -0.66409135       0.67374010      -2.43557963
H        0.65740317      -0.63156657      -2.45157240
C       -0.90989263      -0.90692880      -0.91072765
C        0.90977584       0.90977584      -0.90977584
C       -0.00465871       1.77757030       0.00794375
H       -0.66225468       2.44313916      -0.64384735
H        0.64322798       2.43503045       0.67728295
C       -1.78241447       0.00034974      -0.00472694
H       -2.45427497      -0.65498947       0.64260836
H       -2.43311707       0.67328779      -0.65473579
C       -0.91132561       0.90220522       0.91563759
C       -0.01476271      -0.02253852       1.78660255
H       -0.67934791      -0.69751639       2.42135241
H        0.63392994       0.61504881       2.47327442
C        0.01484550      -1.77751727      -0.01636693
H        0.67870853      -2.42144646      -0.68295456
H       -0.62264859      -2.45592969       0.64226336
C        1.78714474       0.01002794       0.00389507
H        2.44202412       0.67113390       0.66197326
H        2.45385902      -0.65136977      -0.64189061
C        0.91606151      -0.90478549       0.90901405
