145
Properties=species:S:1:pos:R:3 pbc="F F F"
C        0.00000000       0.00000000       0.00000000
C        0.87234514       0.87234514      -0.87234514
C        2.21735725       0.67452023      -1.03474798
C        2.78050940       1.66136191      -1.90061343
C        1.84190706       2.55621977      -2.39307390
S        0.28169409       2.20077332      -1.73399008
C        1.96696609       3.67953355      -3.26106663
C        2.77941073       3.74012681      -4.33534196
C        3.69193212       2.68039683      -4.87837797
N        3.72718259       2.63861218      -6.34623704
C        4.67353885       1.61816287      -6.80112623
C        4.09692716       3.95299915      -6.87709239
C        3.05410547       4.97491768      -6.52692256
C        2.49976357       5.76142065      -7.46905715
C        1.47754272       6.73806887      -7.28446866
C        0.39616282       6.79294825      -6.41725056
C       -0.40672919       7.96303964      -6.58455034
C        0.07540758       8.74964431      -7.59554557
S        1.45505521       8.11500269      -8.33576661
C        2.75770234       5.04392223      -5.06863367
O        2.56592447       6.10441302      -4.48355512
H        2.78032086      -0.11752794      -0.55699000
H        3.83586159       1.70732871      -2.13986619
H        1.33606664       4.53822281      -3.02952975
H        3.36531194       1.69334483      -4.53681827
H        4.69814839       2.85155858      -4.47291888
H        4.66450184       1.54544085      -7.89390522
H        4.38960972       0.63080674      -6.41908030
H        5.69914398       1.83046687      -6.47815882
H        5.07466058       4.27951245      -6.49504235
H        4.19574228       3.88248337      -7.96823544
H        2.85304402       5.64551640      -8.49290451
H        0.18349005       6.03149494      -5.67748922
H       -1.28258128       8.19500367      -5.99131576
C       -0.53437280       9.99014604      -7.99918323
C       -1.04506387      11.02906623      -8.33722977
Br      -1.87080813      12.70891232      -8.88382243
C       -0.87234514      -0.87234514      -0.87234514
C       -2.23940737      -0.88864400      -0.79857409
C       -2.79268700      -1.81992470      -1.72987304
C       -1.83232733      -2.45654914      -2.50232426
S       -0.25102818      -1.93718231      -2.02824701
C       -1.93926879      -3.44458885      -3.52370863
C       -2.90754260      -3.48634073      -4.46099616
C       -4.04598252      -2.53244161      -4.67228280
N       -4.34054390      -2.28210762      -6.08938028
C       -5.49090291      -1.38527551      -6.21664953
C       -4.59933560      -3.54813627      -6.77954683
C       -3.37294257      -4.41430936      -6.76869379
C       -2.88057021      -4.94583401      -7.90383715
C       -1.70955615      -5.74714871      -8.04337539
C       -0.49824319      -5.74086650      -7.36725195
C        0.42669101      -6.71681732      -7.85073449
C       -0.10224253      -7.41773731      -8.90061763
S       -1.66725976      -6.92970017      -9.30886457
C       -2.82170697      -4.64453928      -5.40401199
O       -2.37779180      -5.73012135      -5.04597945
H       -2.82137608      -0.28495834      -0.11344851
H       -3.85512754      -2.01221009      -1.81571886
H       -1.15856340      -4.20566543      -3.53959036
H       -3.81384517      -1.56483902      -4.21679084
H       -4.93056852      -2.93290412      -4.15915322
H       -5.68195355      -1.15227459      -7.26961977
H       -5.29337775      -0.43071726      -5.71540176
H       -6.40260378      -1.81703724      -5.78812865
H       -5.43740178      -4.09152073      -6.32029287
H       -4.89481329      -3.33619391      -7.81545388
H       -3.41888742      -4.74362856      -8.82894894
H       -0.27498858      -5.07122036      -6.54626528
H        1.41644578      -6.87830136      -7.44188258
C        0.60406308      -8.46095070      -9.59806884
C        1.19559402      -9.33464193     -10.18218423
Br       2.15204953     -10.74732674     -11.12664941
C       -0.87234514       0.87234514       0.87234514
C       -0.68660156       2.22086758       1.01915632
C       -1.64942796       2.77704190       1.91601488
C       -2.55403782       1.84127307       2.39588984
S       -2.16818555       0.27222547       1.77604648
C       -3.64865593       1.95799436       3.30091597
C       -4.50181192       3.00072414       3.35234343
C       -4.52966702       4.22925167       2.49178824
N       -5.88855523       4.67147830       2.15199827
C       -5.83723834       5.89942338       1.35616624
C       -6.66713882       4.88554112       3.37433875
C       -6.83753083       3.59530192       4.12311296
C       -8.05345364       3.16573122       4.51105651
C       -8.36256099       1.94955129       5.18796797
C       -7.79207107       0.68646557       5.12782500
C       -8.43786807      -0.26876417       5.97175689
C       -9.49942514       0.29326211       6.62791021
S       -9.72957516       1.92418155       6.25206779
C       -5.55023466       2.90481528       4.41520830
O       -5.33082020       2.34115118       5.48192123
H        0.09679150       2.78634599       0.53022843
H       -1.66351218       3.82313036       2.19641394
H       -3.79883500       1.12123188       3.98375232
H       -4.00891335       4.03811802       1.54844367
H       -3.98315077       5.02694112       3.01253397
H       -6.84499792       6.20432852       1.05452147
H       -5.26937999       5.73738252       0.43273426
H       -5.37527178       6.72911406       1.90338383
H       -6.19098030       5.63005213       4.02818295
H       -7.65117354       5.29076392       3.10452362
H       -8.90817341       3.80103387       4.28225763
H       -6.93501091       0.44601350       4.51144981
H       -8.12940154      -1.30164248       6.07597909
C      -10.34544316      -0.43113851       7.54065182
C      -11.05398326      -1.03782404       8.30507291
Br     -12.19963266      -2.01878322       9.54107717
C        0.87234514      -0.87234514       0.87234514
C        0.58052018      -2.17661007       1.16949521
C        1.57367998      -2.74250099       2.02630377
C        2.60295400      -1.86216543       2.32608129
S        2.30115584      -0.32520796       1.59009370
C        3.76742161      -2.00506385       3.13508080
C        4.52321061      -3.11886231       3.21280657
C        4.35321409      -4.41706583       2.48042700
N        5.62552231      -5.02194997       2.06455952
C        5.38360271      -6.30578370       1.40344154
C        6.49973447      -5.20088733       3.22639689
C        6.86059059      -3.87150796       3.82384716
C        8.14316611      -3.53220385       4.05487141
C        8.62755682      -2.29659896       4.57592447
C        8.17098331      -0.99351419       4.44186414
C        8.98197921      -0.03496128       5.12392031
C       10.04836947      -0.63837965       5.73384835
S       10.09073119      -2.31149505       5.50359827
C        5.67699495      -3.03212704       4.16113625
O        5.61742078      -2.35482281       5.18164902
H       -0.29592637      -2.70298862       0.81272068
H        1.52067142      -3.75494929       2.40743578
H        4.06047733      -1.12897328       3.71436858
H        3.76027944      -4.26128785       1.57390775
H        3.79132727      -5.10551982       3.12577877
H        6.32428337      -6.73603701       1.04352753
H        4.74334378      -6.17231445       0.52383855
H        4.90523132      -7.03199450       2.07054386
H        6.02569622      -5.83159724       3.99192191
H        7.41097983      -5.72527679       2.91020447
H        8.90948818      -4.26791223       3.81406451
H        7.28199055      -0.72555555       3.88492812
H        8.78055509       1.02875614       5.15193920
C       11.04366918       0.07769103       6.48897832
C       11.87723269       0.67740022       7.12139966
Br      13.22503439       1.64707926       8.14397149
