158
Properties=species:S:1:pos:R:3 pbc="F F F"
C        1.78224917       1.78224917      -1.78224917
C        3.12726128       1.58442425      -1.94465200
C        3.69041342       2.57126593      -2.81051745
C        2.75181108       3.46612380      -3.30297792
S        1.19159812       3.11067735      -2.64389411
C        2.87687011       4.58943757      -4.17097065
C        3.68931475       4.65003083      -5.24524598
C        4.60183615       3.59030086      -5.78828199
N        4.63708661       3.54851621      -7.25614106
C        5.58344288       2.52806690      -7.71103025
C        5.00683118       4.86290317      -7.78699641
C        3.96400950       5.88482170      -7.43682659
C        3.40966760       6.67132468      -8.37896117
C        2.38744674       7.64797289      -8.19437269
C        1.30606685       7.70285227      -7.32715459
C        0.50317484       8.87294366      -7.49445437
C        0.98531160       9.65954834      -8.50544960
Br       0.19230523      11.27279436      -9.03037176
S        2.36495924       9.02490671      -9.24567063
C        3.66760637       5.95382625      -5.97853770
O        3.47582849       7.01431704      -5.39345914
H        3.69022489       0.79237609      -1.46689402
H        4.74576561       2.61723273      -3.04977021
H        2.24597066       5.44812683      -3.93943377
H        4.27521597       2.60324885      -5.44672230
H        5.60805241       3.76146261      -5.38282291
H        5.57440586       2.45534488      -8.80380925
H        5.29951374       1.54071077      -7.32898433
H        6.60904801       2.74037090      -7.38806284
H        5.98456460       5.18941647      -7.40494637
H        5.10564630       4.79238739      -8.87813946
H        3.76294804       6.55542042      -9.40280853
H        1.09339407       6.94139897      -6.58739325
H       -0.37267726       9.10490770      -6.90121978
C       -1.78224917      -1.78224917      -1.78224917
C       -3.13970133      -1.63433183      -1.88230437
C       -3.69851785      -2.60835056      -2.76532841
C       -2.74620304      -3.44287180      -3.33183796
S       -1.17534437      -3.04934786      -2.72147735
C       -2.86228562      -4.53478434      -4.24020837
C       -3.71573624      -4.58615553      -5.28269979
C       -4.69178407      -3.54450897      -5.74412596
N       -4.78984607      -3.44551893      -7.20637888
C       -5.79442515      -2.44802574      -7.58008914
C       -5.12850235      -4.75187929      -7.77634913
C       -4.03192625      -5.74262645      -7.51110509
C       -3.48631398      -6.46699822      -8.50664124
C       -2.41901949      -7.40678292      -8.40398992
C       -1.30109445      -7.45119229      -7.58378697
C       -0.45969144      -8.57915829      -7.83172313
C       -0.95169240      -9.34408875      -8.85452838
Br      -0.11733316     -10.90056854      -9.47756965
S       -2.38529444      -8.73840407      -9.51183807
C       -3.67245770      -5.85751987      -6.06999274
O       -3.41416549      -6.93165789      -5.53778129
H       -3.71350368      -0.88619887      -1.34979245
H       -4.76024151      -2.68866534      -2.96386171
H       -2.18842192      -5.37500117      -4.07010817
H       -4.39097204      -2.55915867      -5.37505641
H       -5.67256411      -3.77356276      -5.30621105
H       -5.83387393      -2.33131461      -8.66837145
H       -5.53455702      -1.46577200      -7.16887982
H       -6.79635436      -2.71566000      -7.22546739
H       -6.07560583      -5.13390063      -7.36942099
H       -5.27546651      -4.64193277      -8.85877389
H       -3.88632895      -6.32504151      -9.50980653
H       -1.08840886      -6.71175069      -6.82202674
H        0.44871341      -8.79796020      -7.28420343
C       -1.78224917       1.78224917       1.78224917
C       -1.59019998       3.12898148       1.93715608
C       -2.55481479       3.68551374       2.83186828
C       -3.46685189       2.75202793       3.30203297
S       -3.08598109       1.18424277       2.67594572
C       -4.56560719       2.86977265       4.20189850
C       -5.41353175       3.91671015       4.25434966
C       -5.43038431       5.14987283       3.40016185
N       -6.78511597       5.60105126       3.05557665
C       -6.72314371       6.83287316       2.26652316
C       -7.56901025       5.81279787       4.27492265
C       -7.75013309       4.51955988       5.01596482
C       -8.97032884       4.09438579       5.39523881
C       -9.28939437       2.87631543       6.06408252
C       -8.72523993       1.61056713       6.00026665
C       -9.38049681       0.65434067       6.83573539
C      -10.44253725       1.21851116       7.48926112
Br     -11.55395603       0.27604432       8.66547099
S      -10.66212516       2.85257613       7.12083529
C       -6.46804410       3.82075716       5.31116904
O       -6.25723278       3.25034418       6.37602772
H       -0.80127431       3.69287507       1.45534562
H       -2.56488281       4.73017410       3.11771165
H       -4.72378635       2.03023851       4.87950640
H       -4.90566614       4.96095070       2.45857027
H       -4.88244239       5.94191664       3.92797890
H       -7.72767959       7.14467858       1.96120182
H       -6.15127447       6.67268953       1.34524484
H       -6.25972081       7.65722485       2.82053610
H       -7.09240666       6.55133696       4.93518383
H       -8.54946293       6.22462556       4.00208467
H       -9.82047779       4.73538829       5.16531091
H       -7.86621102       1.36883318       5.38714209
H       -9.07801706      -0.38068616       6.93611933
C        1.78224917      -1.78224917       1.78224917
C        1.43269682      -3.04541198       2.17822873
C        2.44265971      -3.62103685       3.00850025
C        3.53942841      -2.79135522       3.19012916
S        3.28367101      -1.28491947       2.37757910
C        4.74220558      -2.95928075       3.93579200
C        5.43374923      -4.11209129       4.03875105
C        5.14073955      -5.43821960       3.40145985
N        6.34589259      -6.14613003       2.94972126
C        5.98659942      -7.44914668       2.38679392
C        7.27970732      -6.31057509       4.06644836
C        7.75616725      -4.97350600       4.55598453
C        9.06871702      -4.70293981       4.68829662
C        9.65782434      -3.47166020       5.10030778
C        9.27206583      -2.15257839       4.91142949
C       10.18024311      -1.20839693       5.48193283
C       11.24529380      -1.84074128       6.06427445
Br      12.65237915      -0.93652162       6.90657057
S       11.17331232      -3.52391567       5.93830859
C        6.64837600      -4.04228091       4.90931340
O        6.69396347      -3.30301390       5.88662731
H        0.50564039      -3.53554545       1.90830916
H        2.35371007      -4.60360843       3.45545005
H        5.12298634      -2.07057377       4.43997115
H        4.50192504      -5.29945597       2.52380610
H        4.58085454      -6.05007302       4.12141038
H        6.87531858      -7.95875867       1.99948273
H        5.30101583      -7.32800860       1.54018441
H        5.50904325      -8.10260705       3.12583145
H        6.81838502      -6.86331095       4.89723149
H        8.13626670      -6.90950048       3.73040599
H        9.77309424      -5.49872072       4.44936202
H        8.36712598      -1.86250186       4.39255845
H       10.04468071      -0.13428287       5.45448665
C       -0.00445707       0.01189536      -1.78238275
H       -0.66409135       0.67374010      -2.43557963
H        0.65740317      -0.63156657      -2.45157240
C       -0.90989263      -0.90692880      -0.91072765
C        0.90977584       0.90977584      -0.90977584
C       -0.00465871       1.77757030       0.00794375
H       -0.66225468       2.44313916      -0.64384735
H        0.64322798       2.43503045       0.67728295
C       -1.78241447       0.00034974      -0.00472694
H       -2.45427497      -0.65498947       0.64260836
H       -2.43311707       0.67328779      -0.65473579
C       -0.91132561       0.90220522       0.91563759
C       -0.01476271      -0.02253852       1.78660255
H       -0.67934791      -0.69751639       2.42135241
H        0.63392994       0.61504881       2.47327442
C        0.01484550      -1.77751727      -0.01636693
H        0.67870853      -2.42144646      -0.68295456
H       -0.62264859      -2.45592969       0.64226336
C        1.78714474       0.01002794       0.00389507
H        2.44202412       0.67113390       0.66197326
H        2.45385902      -0.65136977      -0.64189061
C        0.91606151      -0.90478549       0.90901405
