170
Properties=species:S:1:pos:R:3 pbc="F F F"
C        1.78175117       1.78175117      -1.78175117
C        3.14578161       1.84189153      -1.66948281
C        3.69960217       2.75465583      -2.61825811
C        2.74123642       3.33857073      -3.43237654
S        1.16389619       2.79257280      -2.98825536
C        2.86010740       4.29472693      -4.47954836
C        3.77859346       4.23638474      -5.46393424
C        4.83193013       3.19084185      -5.69670431
C        4.97082341       2.80309455      -7.17646041
C        6.14284456       1.84002730      -7.36900691
C        5.15701656       4.05670581      -8.03670687
C        3.99794350       5.00201228      -7.86058958
C        3.32403477       5.48329760      -8.92301722
C        2.17974368       6.33485560      -8.90056092
C        1.13135100       6.45436451      -7.99885194
C        0.16814516       7.43974710      -8.37410826
C        0.49892450       8.01972542      -9.56853183
S        1.92576248       7.40884882     -10.23581805
C        3.70423905       5.36568157      -6.44297606
O        3.45456992       6.51123140      -6.08919306
H        3.72483119       1.27880139      -0.94812396
H        4.75773201       2.97495494      -2.69200507
H        2.13432617       5.10799053      -4.47434338
H        4.62273563       2.27662139      -5.13216985
H        5.78817117       3.58165947      -5.32546418
H        4.05361258       2.28673189      -7.49278202
H        7.09170931       2.30468094      -7.08025483
H        6.22267554       1.53084733      -8.41621423
H        6.00881802       0.93859622      -6.76227683
H        6.08446988       4.57564593      -7.76070409
H        5.26640589       3.76055517      -9.08754742
H        3.67264035       5.19381655      -9.91413563
H        1.05148062       5.86984402      -7.09111174
H       -0.70882801       7.69229762      -7.79146732
C       -0.29273690       9.04175459     -10.20282560
C       -0.95575333       9.89770403     -10.73404664
Br      -2.02779482      11.28170186     -11.59298612
C       -1.78175117      -1.78175117      -1.78175117
C       -1.75841979      -1.74764483      -3.15109134
C       -2.69348141      -2.67494154      -3.70409316
C       -3.37769253      -3.39651949      -2.73797167
S       -2.89566606      -2.89068988      -1.15836841
C       -4.38627768      -4.39356607      -2.85453894
C       -4.33513124      -5.43257969      -3.71120151
C       -3.24779899      -5.78595204      -4.68572526
C       -2.94160114      -7.29078394      -4.71799329
C       -1.92741056      -7.60649854      -5.81796967
C       -4.23174165      -8.08883556      -4.92985203
C       -5.22848152      -7.79126279      -3.84080104
C       -5.80920981      -8.78300595      -3.13813383
C       -6.72082861      -8.64472257      -2.04960901
C       -6.84515039      -7.67694450      -1.06247256
C       -7.90364197      -7.93830122      -0.14005732
C       -8.53417347      -9.11583718      -0.43717110
S       -7.88493297      -9.90008674      -1.78540963
C       -5.52307230      -6.34050554      -3.64931884
O       -6.65775001      -5.90873039      -3.48851398
H       -1.12178149      -1.09477612      -3.73519891
H       -2.85801640      -2.79903238      -4.76764324
H       -5.23725773      -4.29952857      -2.17987378
H       -2.31479852      -5.26219579      -4.45453256
H       -3.56152428      -5.45091034      -5.68286020
H       -2.49729237      -7.58046292      -3.75537120
H       -2.32004673      -7.34908360      -6.80751474
H       -1.67709548      -8.67230583      -5.82033580
H       -1.00042521      -7.04444265      -5.66482321
H       -4.68044317      -7.83980498      -5.90057174
H       -3.99296871      -9.15929109      -4.96224869
H       -5.56009859      -9.80779888      -3.41269506
H       -6.21306171      -6.80031551      -0.99905916
H       -8.16991939      -7.29125115       0.68623362
C       -9.63496986      -9.64351254       0.32663910
C      -10.55688683     -10.08544065       0.96633015
Br     -12.04754861     -10.80000103       2.00065647
C       -1.78175117       1.78175117       1.78175117
C       -3.14040239       1.88038956       1.63636401
C       -3.69540427       2.78284772       2.59426412
C       -2.74408842       3.32055633       3.44753894
S       -1.17010081       2.74498668       3.02963686
C       -2.86589849       4.25249326       4.51599094
C       -3.81100577       4.19312304       5.47478363
C       -4.89637695       3.16989507       5.65320427
C       -5.08376402       2.74832291       7.11829144
C       -6.28458628       1.81164502       7.25564746
C       -5.26038067       3.98404169       8.00600688
C       -4.07338026       4.90289056       7.88427454
C       -3.41544210       5.33914916       8.97575833
C       -2.24962233       6.16078218       9.00475569
C       -1.17529849       6.27577329       8.13349567
C       -0.19743452       7.22574099       8.55882501
C       -0.54445110       7.78354033       9.75919033
S       -2.00336046       7.19338269      10.37368620
C       -3.73352435       5.29476775       6.48460458
O       -3.44557047       6.44204050       6.16738341
H       -3.71455048       1.35120640       0.88599965
H       -4.74914209       3.02879589       2.64675404
H       -2.11973666       5.04636398       4.55055945
H       -4.69585827       2.26520191       5.07046669
H       -5.83230895       3.59492499       5.26806088
H       -4.18859970       2.20025232       7.44427447
H       -7.21342247       2.30816630       6.95505631
H       -6.39963448       1.47806787       8.29203476
H       -6.15775581       0.92277423       6.62916103
H       -6.16676950       4.53392826       7.72012213
H       -5.40473042       3.66416569       9.04561238
H       -3.79711648       5.03371728       9.94975877
H       -1.08663756       5.71269036       7.21310847
H        0.70062984       7.47003600       8.00553076
C        0.25614174       8.76801456      10.43997047
C        0.92663823       9.59251173      11.01012384
Br       2.01077436      10.92565391      11.93201362
C        1.78175117      -1.78175117       1.78175117
C        1.38582690      -2.27392703       2.99740202
C        2.41906210      -3.05805070       3.59540331
C        3.55407447      -3.15321296       2.80489626
S        3.35351576      -2.23624573       1.35496285
C        4.79435617      -3.81524405       3.02478246
C        4.91400106      -5.07398639       3.49092499
C        3.82423862      -6.04278896       3.85244871
C        4.11127780      -7.47166538       3.36743520
C        3.03904037      -8.43498689       3.87785150
C        5.50122508      -7.91849085       3.83071332
C        6.56192214      -6.98000893       3.31861429
C        7.63722673      -7.44168141       2.65144145
C        8.68228733      -6.66730748       2.06556539
C        8.68897634      -5.40323802       1.49235309
C        9.97111869      -5.00734510       1.00353673
C       10.89611358      -5.99768947       1.19337870
S       10.25875835      -7.37390850       1.93776249
C        6.32709947      -5.54217287       3.64362434
O        7.21399853      -4.79804343       4.04295243
H        0.42003408      -2.08313357       3.44858889
H        2.33045018      -3.52563816       4.56860369
H        5.69275973      -3.25222410       2.77167626
H        2.85981995      -5.73763100       3.43407592
H        3.71251827      -6.03833275       4.94444380
H        4.08085698      -7.48342512       2.26884439
H        3.02863669      -8.47568890       4.97231949
H        3.21807063      -9.44812491       3.50354156
H        2.04486811      -8.12366789       3.54115507
H        5.54872752      -7.94470108       4.92739129
H        5.68430589      -8.94402257       3.48618002
H        7.72983352      -8.52072082       2.53003819
H        7.81420646      -4.76850053       1.42972939
H       10.18216620      -4.05103101       0.54173971
C       12.27424389      -5.88678335       0.79081605
C       13.42842802      -5.79389948       0.45366983
Br      15.29464615      -5.64371411      -0.09146709
C       -0.00445707       0.01189536      -1.78238275
H       -0.66409135       0.67374010      -2.43557963
H        0.65740317      -0.63156657      -2.45157240
C       -0.90989263      -0.90692880      -0.91072765
C        0.90977584       0.90977584      -0.90977584
C       -0.00465871       1.77757030       0.00794375
H       -0.66225468       2.44313916      -0.64384735
H        0.64322798       2.43503045       0.67728295
C       -1.78241447       0.00034974      -0.00472694
H       -2.45427497      -0.65498947       0.64260836
H       -2.43311707       0.67328779      -0.65473579
C       -0.91132561       0.90220522       0.91563759
C       -0.01476271      -0.02253852       1.78660255
H       -0.67934791      -0.69751639       2.42135241
H        0.63392994       0.61504881       2.47327442
C        0.01484550      -1.77751727      -0.01636693
H        0.67870853      -2.42144646      -0.68295456
H       -0.62264859      -2.45592969       0.64226336
C        1.78714474       0.01002794       0.00389507
H        2.44202412       0.67113390       0.66197326
H        2.45385902      -0.65136977      -0.64189061
C        0.91606151      -0.90478549       0.90901405
