165
Properties=species:S:1:pos:R:3 pbc="F F F"
C        0.00000000       0.00000000       0.00000000
C       -0.42169590      -0.90399249      -6.82800305
C        0.91614892      -0.44515952      -7.41860044
C        1.35368321       0.92126753      -6.87493663
C        1.73090507       0.86451826      -5.41978932
C        1.23856646       1.74245780      -4.52450217
C        1.46546754       1.71587092      -3.07787433
C        2.48150805       2.49245559      -2.50812585
C        2.69611322       2.46239806      -1.12842892
C        1.89535929       1.65925350      -0.32337963
F        2.11631068       1.64980558       0.99941549
C        0.88249009       0.88249009      -0.88249009
C        0.66408885       0.90806966      -2.26115929
C        2.65846018      -0.23939056      -5.01493985
O        3.52666774      -0.09961433      -4.16189505
C        2.46674819      -1.53346743      -5.73915620
C        2.70673497      -2.64296903      -5.01607243
C        2.55143469      -4.00645369      -5.51936423
C        3.65218792      -4.68775892      -6.05211915
C        3.50125362      -5.98848219      -6.53602058
C        2.25288219      -6.60269265      -6.48763455
F        2.13280079      -7.85188052      -6.96017340
C        1.15286249      -5.93031672      -5.95981511
Br      -0.54494597      -6.76024906      -5.89646794
C        1.29829996      -4.63048788      -5.47311321
C        2.02930181      -1.47180061      -7.17571015
H       -0.72763714      -1.85819590      -7.27034663
H       -1.20700243      -0.17120075      -7.04196273
H       -0.37652568      -1.03983551      -5.74281922
H        0.77555078      -0.34794737      -8.50313661
H        0.55390685       1.65260525      -7.04763078
H        2.22314898       1.27659712      -7.44346114
H        0.57079966       2.53689146      -4.85077493
H        3.12377585       3.10595124      -3.13614934
H        3.48838607       3.05244013      -0.67935310
H       -0.12319092       0.29997651      -2.69953585
H        3.03396124      -2.57453121      -3.97839973
H        4.62990777      -4.21123378      -6.08983881
H        4.34849100      -6.52768792      -6.94872986
H        0.44267457      -4.10333629      -5.05749729
H        2.90330684      -1.19531341      -7.78063521
H        1.70111383      -2.44874440      -7.54709375
C       -6.00068747       2.64545618      -2.14708338
C       -6.93597676       1.46106158      -2.41467466
C       -6.26305248       0.36672227      -3.25355716
C       -5.17228048      -0.34352280      -2.49940937
C       -3.94770808      -0.52833108      -3.02948726
C       -2.79396354      -1.11825094      -2.34699832
C       -2.50153572      -2.47858365      -2.50197011
C       -1.40174356      -3.03771361      -1.84748303
C       -0.59793203      -2.23717448      -1.04288591
F        0.45565120      -2.79440600      -0.42794597
C       -0.88249009      -0.88249009      -0.88249009
C       -1.98107764      -0.31850983      -1.53373033
C       -5.51168486      -0.80623630      -1.11608832
O       -5.09052103      -1.85510339      -0.64332405
C       -6.42227852       0.09552435      -0.34568280
C       -6.20394343       0.14255170       0.98155336
C       -6.95731934       0.97962007       1.91335404
C       -8.06322565       0.45446630       2.59221121
C       -8.78405222       1.25647238       3.47878783
C       -8.39928960       2.57874108       3.68272443
F       -9.10857837       3.32958054       4.53790416
C       -7.30046026       3.10831639       3.00978300
Br      -6.77779851       4.90508615       3.28143945
C       -6.57518985       2.31066400       2.12360057
C       -7.47073673       0.85078235      -1.11325697
H       -6.52481122       3.42751584      -1.58721820
H       -5.65799791       3.08438712      -3.09014877
H       -5.11606350       2.35912934      -1.56952387
H       -7.79151076       1.84588915      -2.98511841
H       -5.87901750       0.80727539      -4.18240077
H       -7.01512428      -0.37496647      -3.55311650
H       -3.73363898      -0.18536839      -4.03945868
H       -3.13948629      -3.11297536      -3.11341478
H       -1.17388322      -4.09340474      -1.95289135
H       -2.20675796       0.73729974      -1.40686322
H       -5.41967944      -0.45930054       1.44115022
H       -8.36568074      -0.57931553       2.43648349
H       -9.64169512       0.85911196       4.01305021
H       -5.71493697       2.71945405       1.59864735
H       -8.27827189       0.14780963      -1.35816638
H       -7.93050264       1.64168519      -0.51064572
C        2.38757748       6.26776012       1.62213202
C        1.72061801       6.66716656       2.94304129
C        0.20473647       6.43081345       2.92381039
C       -0.14653645       4.96827113       2.90040507
C       -1.02707144       4.46422967       2.01422530
C       -1.36464434       3.04914142       1.84542703
C       -2.48625244       2.50947792       2.48635912
C       -2.80330368       1.15897638       2.32466014
C       -2.00119723       0.35354165       1.52325354
F       -2.32746449      -0.93924023       1.37847652
C       -0.88249009       0.88249009       0.88249009
C       -0.56042397       2.23161656       1.04127728
C        0.55867569       4.09811067       3.89457450
O        0.01655120       3.15213772       4.45336195
C        1.97827980       4.47239858       4.17831819
C        2.80666708       3.44484631       4.44165913
C        4.23570919       3.58514328       4.71491113
C        4.69259579       3.67399725       6.03514668
C        6.05739242       3.81196850       6.29421593
C        6.95961310       3.86222957       5.23520762
F        8.26529785       3.99689156       5.50949997
C        6.51195788       3.77547124       3.91884752
Br       7.73442371       3.84758866       2.47810795
C        5.14889173       3.63577287       3.65404414
C        2.33719171       5.93133352       4.13906953
H        3.45933312       6.49185958       1.65198711
H        1.95347354       6.82923111       0.78800198
H        2.27687301       5.20125245       1.40207859
H        1.89310048       7.74261625       3.08122425
H       -0.23272918       6.95610059       2.06531311
H       -0.24393162       6.87941775       3.81985788
H       -1.52723048       5.12334150       1.30789408
H       -3.10442979       3.13063605       3.13081060
H       -3.66430754       0.72948774       2.82638402
H        0.31398774       2.64516199       0.54514719
H        2.43813327       2.41894556       4.45701747
H        3.99019656       3.63325520       6.86545415
H        6.42353866       3.87888402       7.31418759
H        4.79572507       3.56464220       2.62791845
H        1.96905542       6.39209456       5.06558949
H        3.42149700       6.08723650       4.13372368
C       -2.54571808      -1.93229944       6.11573331
C       -1.34511806      -2.20655837       7.02814953
C       -0.28890661      -3.08889664       6.34989735
C        0.41198213      -2.37977596       5.22345457
C        0.55293316      -2.94417149       4.00842176
C        1.13023350      -2.30518629       2.82379300
C        2.47858714      -2.50139338       2.50210896
C        3.02578555      -1.88829763       1.37285702
C        2.22526366      -1.08378318       0.56894558
F        2.77075646      -0.50903041      -0.51308610
C        0.88249009      -0.88249009       0.88249009
C        0.33049366      -1.49224869       2.01057545
C        0.91682697      -1.00061267       5.51656983
O        1.96605315      -0.56480150       5.05809382
C        0.05736721      -0.18572307       6.42934669
C        0.03740278       1.13652774       6.17896333
C       -0.75739899       2.10723644       6.92898066
C       -0.18816040       2.79958087       8.00428942
C       -0.94984698       3.72341526       8.72205426
C       -2.27596873       3.95100963       8.36480244
F       -2.98757921       4.84189867       9.07057155
C       -2.84930344       3.26486173       7.29652604
Br      -4.65143840       3.56867325       6.81138456
C       -2.09206982       2.34142175       6.57441686
C       -0.68989845      -0.90816801       7.51494178
H       -3.30041543      -1.34029557       6.64463344
H       -3.01609113      -2.87215595       5.80769473
H       -2.26763539      -1.38396049       5.21013294
H       -1.72219711      -2.74602472       7.90691242
H       -0.76159084      -4.01551236       6.00022137
H        0.46387520      -3.38847382       7.09085822
H        0.18006049      -3.95015195       3.82825362
H        3.11363044      -3.11276499       3.13948100
H        4.07252118      -2.02573845       1.12191967
H       -0.71588934      -1.33341272       2.25879806
H        0.63044711       1.56151078       5.36889343
H        0.84876599       2.62539479       8.28514159
H       -0.51810108       4.26838107       9.55601509
H       -2.53507581       1.80598250       5.73789388
H        0.02692315      -1.15079765       8.31090783
H       -1.45400266      -0.27479908       7.97866675
