186
Properties=species:S:1:pos:R:3 pbc="F F F"
C        0.48820813       0.00591154      -7.73790707
C        1.82605295       0.46474450      -8.32850446
C        2.26358723       1.83117156      -7.78484066
C        2.64080910       1.77442228      -6.32969335
C        2.14847048       2.65236182      -5.43440619
C        2.37537157       2.62577495      -3.98777835
C        3.39141207       3.40235961      -3.41802987
C        3.60601725       3.37230208      -2.03833295
C        2.80526331       2.56915753      -1.23328366
F        3.02621471       2.55970960       0.08951146
C        1.79239412       1.79239412      -1.79239412
C        1.57399287       1.81797368      -3.17106332
C        3.56836420       0.67051347      -5.92484388
O        4.43657176       0.81028970      -5.07179908
C        3.37665221      -0.62356340      -6.64906023
C        3.61663899      -1.73306500      -5.92597645
C        3.46133871      -3.09654967      -6.42926825
C        4.56209195      -3.77785490      -6.96202317
C        4.41115764      -5.07857817      -7.44592461
C        3.16278621      -5.69278863      -7.39753858
F        3.04270481      -6.94197649      -7.87007742
C        2.06276651      -5.02041270      -6.86971913
Br       0.36495805      -5.85034504      -6.80637196
C        2.20820398      -3.72058386      -6.38301723
C        2.93920583      -0.56189659      -8.08561417
H        0.18226688      -0.94829187      -8.18025065
H       -0.29709840       0.73870328      -7.95186675
H        0.53337834      -0.12993149      -6.65272325
H        1.68545480       0.56195666      -9.41304064
H        1.46381087       2.56250928      -7.95753481
H        3.13305301       2.18650115      -8.35336517
H        1.48070369       3.44679549      -5.76067895
H        4.03367987       4.01585526      -4.04605337
H        4.39829010       3.96234415      -1.58925712
H        0.78671311       1.20988053      -3.60943987
H        3.94386526      -1.66462719      -4.88830376
H        5.53981179      -3.30132976      -6.99974283
H        5.25839502      -5.61778389      -7.85863388
H        1.35257860      -3.19343227      -5.96740131
H        3.81321087      -0.28540939      -8.69053923
H        2.61101785      -1.53884037      -8.45699777
C       -5.30761137       2.25711664      -5.18153201
C       -6.45775682       1.27724707      -5.43879216
C       -5.95563216      -0.12786016      -5.79610713
C       -5.29972173      -0.81533949      -4.62986350
C       -4.09244814      -1.40276537      -4.74002498
C       -3.32823401      -2.01162441      -3.64906645
C       -3.40487460      -3.39010976      -3.41681719
C       -2.67634171      -3.96639926      -2.37391131
C       -1.87362295      -3.16542484      -1.56865671
F       -1.17917866      -3.74108086      -0.57615332
C       -1.79239412      -1.79239412      -1.79239412
C       -2.51913688      -1.21091674      -2.83297625
C       -6.04703542      -0.78429506      -3.33239107
O       -6.05150548      -1.72256683      -2.54458823
C       -6.81076390       0.47298914      -3.06437427
C       -6.88091586       0.84385025      -1.77248483
C       -7.55089624       2.05211884      -1.29527990
C       -8.87964781       1.99221268      -0.85882509
C       -9.51929532       3.14790926      -0.40711802
C       -8.83104730       4.35794258      -0.39443144
F       -9.46753606       5.45446453       0.04226578
C       -7.50894506       4.42518213      -0.82831001
Br      -6.57269623       6.06793781      -0.81622656
C       -6.86400196       3.27270338      -1.27933877
C       -7.41152619       1.18958979      -4.24098702
H       -5.69826568       3.25945175      -4.97541173
H       -4.65929210       2.32725664      -6.06143617
H       -4.68661219       1.96072300      -4.33028092
H       -7.02533689       1.66141100      -6.29652621
H       -5.27129195      -0.06114976      -6.65141324
H       -6.80279118      -0.74264695      -6.12748119
H       -3.57691084      -1.41332739      -5.69793990
H       -4.04756299      -4.01726098      -4.03076453
H       -2.73817667      -5.03218817      -2.17952653
H       -2.45987894      -0.13943927      -3.00671530
H       -6.41712716       0.24102658      -0.99144126
H       -9.42007278       1.04758143      -0.86573351
H      -10.54865512       3.11290605      -0.06349594
H       -5.83099665       3.32044874      -1.61599974
H       -8.31144647       0.63841071      -4.54530494
H       -7.74879321       2.19830205      -3.97868410
C       -0.37175796       0.11677161       7.74349717
C       -1.70741809       0.56439144       8.34749239
C       -2.17390607       1.91561577       7.79007761
C       -2.57206913       1.83097429       6.34188131
C       -2.10672637       2.70244319       5.42606894
C       -2.35493579       2.65034912       3.98363996
C       -3.39117881       3.40276372       3.41785903
C       -3.62603505       3.34840727       2.04220996
C       -2.82530922       2.54519764       1.23719763
F       -3.06596890       2.51221982      -0.08177587
C       -1.79239412       1.79239412       1.79239412
C       -1.55368973       1.84231505       3.16702508
C       -3.48863880       0.70717820       5.96790455
O       -4.37161735       0.82082739       5.12621580
C       -3.26630517      -0.57265315       6.70849702
C       -3.50016746      -1.69655673       6.00593971
C       -3.31650100      -3.04970272       6.52725901
C       -4.39857720      -3.73927520       7.08695822
C       -4.22052623      -5.03003613       7.58801398
C       -2.96378694      -5.62606095       7.52981017
F       -2.81754003      -6.86593612       8.01920184
C       -1.88223344      -4.94535135       6.97519086
Br      -0.17309011      -5.75051457       6.89840944
C       -2.05481730      -3.65544473       6.47126477
C       -2.80828633      -0.48247314       8.13711022
H       -0.04465455      -0.82585167       8.19542277
H        0.40539296       0.86447951       7.93438508
H       -0.43117079      -0.03629752       6.66129683
H       -1.55201887       0.68026454       9.42816869
H       -1.38288734       2.66145731       7.93951030
H       -3.04004581       2.26646627       8.36640724
H       -1.44633991       3.51172602       5.73011220
H       -4.03322140       4.01604839       4.04631872
H       -4.43389647       3.91953251       1.59646240
H       -0.75070548       1.25290430       3.60242372
H       -3.84397730      -1.64891014       4.97247467
H       -5.38278429      -3.27699463       7.13243521
H       -5.05312189      -5.57556111       8.02168424
H       -1.21369516      -3.12188929       6.03474177
H       -3.67721216      -0.20995914       8.75108769
H       -2.45966162      -1.44858084       8.51809448
C        6.54074980       1.97411074       3.66538768
C        7.53975253       0.83980121       3.91935060
C        6.89308519      -0.35626452       4.63024974
C        5.91110921      -1.08211064       3.75170487
C        4.67007117      -1.38820013       4.17696719
C        3.61175469      -2.00385564       3.37331454
C        3.40973136      -3.38863441       3.41343579
C        2.40093709      -3.97202636       2.64368883
C        1.59741844      -3.17141338       1.83887268
F        0.63176827      -3.75266058       1.11198399
C        1.79239412      -1.79239412       1.79239412
C        2.79985627      -1.20402075       2.55915286
C        6.37690948      -1.41820133       2.36861073
O        6.06678380      -2.45593137       1.79594537
C        7.26947594      -0.40256488       1.73010822
C        7.13922501      -0.27357123       0.39675421
C        7.89108949       0.67878996      -0.41824224
C        9.07612148       0.28127025      -1.04859101
C        9.79508289       1.19321921      -1.82335960
C        9.32942787       2.49756615      -1.96432557
F       10.03851255       3.35552219      -2.71218462
C        8.15151707       2.90040012      -1.33904400
Br       7.51856125       4.67242909      -1.52514718
C        7.42784248       1.99250910      -0.56469603
C        8.20514289       0.36420366       2.62198419
H        7.04319230       2.82891434       3.19994770
H        6.10341684       2.31851575       4.60857054
H        5.72085099       1.67118916       3.00650828
H        8.32398727       1.23926861       4.57573344
H        6.41546424      -0.01202227       5.55636845
H        7.67522916      -1.06490717       4.93278299
H        4.36317526      -1.13541293       5.18958993
H        4.04922759      -4.02110522       4.02525570
H        2.24425244      -5.04566490       2.65997403
H        2.95582523      -0.12884333       2.52136495
H        6.43422466      -0.89222803      -0.15891086
H        9.44206512      -0.73811657      -0.94195683
H       10.71389589       0.89536146      -2.31928942
H        6.50623087       2.30224232      -0.07744090
H        9.04336416      -0.29814068       2.87683587
H        8.64581555       1.22654774       2.10990745
C       -0.00445707       0.01189536      -1.78238275
H       -0.66409135       0.67374010      -2.43557963
H        0.65740317      -0.63156657      -2.45157240
C       -0.90989263      -0.90692880      -0.91072765
C        0.90977584       0.90977584      -0.90977584
C       -0.00465871       1.77757030       0.00794375
H       -0.66225468       2.44313916      -0.64384735
H        0.64322798       2.43503045       0.67728295
C       -1.78241447       0.00034974      -0.00472694
H       -2.45427497      -0.65498947       0.64260836
H       -2.43311707       0.67328779      -0.65473579
C       -0.91132561       0.90220522       0.91563759
C       -0.01476271      -0.02253852       1.78660255
H       -0.67934791      -0.69751639       2.42135241
H        0.63392994       0.61504881       2.47327442
C        0.01484550      -1.77751727      -0.01636693
H        0.67870853      -2.42144646      -0.68295456
H       -0.62264859      -2.45592969       0.64226336
C        1.78714474       0.01002794       0.00389507
H        2.44202412       0.67113390       0.66197326
H        2.45385902      -0.65136977      -0.64189061
C        0.91606151      -0.90478549       0.90901405
