138
Properties=species:S:1:pos:R:3 pbc="F F F"
C        1.79323742       1.79323742      -1.79323742
C        1.87908643       1.52530157      -3.15573818
C        2.68414694       2.32164015      -3.97675212
C        3.40655929       3.39643423      -3.42037301
N        4.23737050       4.25592644      -4.11236237
C        4.74101973       5.13660790      -3.29092865
N        5.59959781       6.15966708      -3.55451146
C        6.11209979       6.40650480      -4.80691608
O        5.89134083       5.76212576      -5.82525682
C        7.00283629       7.58296964      -4.79764609
N        7.18659841       8.30171070      -3.66108590
N        8.02992370       9.28852002      -4.02891610
C        8.43162719      10.27996776      -3.05926196
C        8.41328342       9.22731577      -5.33249868
C        7.76329861       8.13939182      -5.85358947
S        4.27391549       5.01335093      -1.65644098
C        3.29781969       3.64517130      -2.04927379
C        2.49561984       2.85273683      -1.21070843
H        1.32642520       0.69937324      -3.59709816
H        2.76120413       2.12327547      -5.04181668
H        5.88695562       6.77885439      -2.80674956
H        9.07703595      11.01874321      -3.54103699
H        8.97408901       9.77539093      -2.25622118
H        7.53292933      10.76688623      -2.67256184
H        9.09331547       9.94299528      -5.77271766
H        2.42747978       3.06155467      -0.14792679
C        7.85838215       7.67665252      -7.21389512
C        7.93801461       7.28910835      -8.35315110
Br       8.06677357       6.66248221     -10.19523166
C       -1.79323742      -1.79323742      -1.79323742
C       -2.27834763      -2.99485428      -1.28692428
C       -3.08501608      -3.81522030      -2.08230283
C       -3.40592877      -3.42062708      -3.39681068
N       -4.18562853      -4.13321200      -4.28681878
C       -4.28259537      -3.47565258      -5.41030833
N       -4.95477681      -3.81434466      -6.54465487
C       -5.65101550      -4.99271184      -6.68179333
O       -5.75468859      -5.88032139      -5.84371343
C       -6.28883690      -5.08535501      -8.00926011
N       -6.19261862      -4.06161404      -8.89516235
N       -6.89644749      -4.48565489      -9.96525745
C       -7.03414666      -3.62238234     -11.11432791
C       -7.41857447      -5.73332064      -9.82120276
C       -7.04567003      -6.14276078      -8.56784909
S       -3.46639586      -1.98183425      -5.49547729
C       -2.90841397      -2.20618639      -3.87766442
C       -2.09459568      -1.37230272      -3.09216670
H       -2.03828344      -3.31025203      -0.27436113
H       -3.46978527      -4.75629107      -1.70021994
H       -4.95377144      -3.18277987      -7.33600826
H       -7.66613374      -4.10956569     -11.86111672
H       -6.03950241      -3.43872461     -11.52747410
H       -7.49647568      -2.68725098     -10.78865073
H       -7.99938519      -6.21352126     -10.59612198
H       -1.71643106      -0.43444672      -3.48608345
C       -7.37353768      -7.40926514      -7.96612696
C       -7.64812684      -8.46996254      -7.46218468
Br      -8.09211428     -10.18502052      -6.64735264
C       -1.79323742       1.79323742       1.79323742
C       -2.32461393       2.96704471       1.26846754
C       -3.13196165       3.78708996       2.06348760
C       -3.40657740       3.42036534       3.39642379
N       -4.18147633       4.13603513       4.28814786
C       -4.23019071       3.50727915       5.43108642
N       -4.88081880       3.85893464       6.57402290
C       -5.60529687       5.02156141       6.69866238
O       -5.75576159       5.88267845       5.84028336
C       -6.20964798       5.13358372       8.04022032
N       -6.06160595       4.13755194       8.95023712
N       -6.74792732       4.57187773      10.02755476
C       -6.83099831       3.73717345      11.20268516
C       -7.30785926       5.80067699       9.86456161
C       -6.98006095       6.18531272       8.59090624
S       -3.37120663       2.03876364       5.53373713
C       -2.86313437       2.23337529       3.89575513
C       -2.04800551       1.40028572       3.11077386
H       -2.12052182       3.26077584       0.24159894
H       -3.55257479       4.70664888       1.66707261
H       -4.84124305       3.24963833       7.38167818
H       -7.45592643       4.22762260      11.95326711
H       -5.82096987       3.59165609      11.59307517
H       -7.27597575       2.78138893      10.91501272
H       -7.88070330       6.28629313      10.64203199
H       -1.63376363       0.48408797       3.51910964
C       -7.35865141       7.42554518       7.96473319
C       -7.67572093       8.46423987       7.44031326
Br      -8.18839551      10.14372134       6.59237059
C        1.79323742      -1.79323742       1.79323742
C        2.00045632      -1.43749472       3.12217513
C        2.80733569      -2.23275900       3.94244452
C        3.40831496      -3.39551776       3.41953380
N        4.22661631      -4.26461028       4.11443272
C        4.60360097      -5.23637717       3.32857814
N        5.40564185      -6.30036169       3.60777280
C        5.99274487      -6.49663336       4.83614244
O        5.89542346      -5.76745875       5.81584120
C        6.79536698      -7.73480582       4.85327922
N        6.84172728      -8.54345440       3.76421333
N        7.63902467      -9.56290524       4.14542991
C        7.89562038     -10.64755374       3.22768279
C        8.12318672      -9.43942117       5.41048997
C        7.59250295      -8.27155742       5.89221953
S        4.02408560      -5.19330305       1.72631875
C        3.17902655      -3.73103782       2.08220041
C        2.37339141      -2.94110620       1.24456748
H        1.54214137      -0.54318686       3.53756836
H        2.97843591      -1.96644884       4.98141155
H        5.59143187      -6.99050333       2.89062437
H        8.52209879     -11.39732732       3.71739004
H        8.40992749     -10.24310154       2.35267209
H        6.93827717     -11.09110064       2.94299958
H        8.78258463     -10.17175932       5.85468447
H        2.21059886      -3.21832744       0.20803493
C        7.82242779      -7.72290386       7.20359813
C        8.01498984      -7.26340650       8.30187771
Br       8.32634640      -6.52043814      10.07770290
C       -0.00445707       0.01189536      -1.78238275
H       -0.66409135       0.67374010      -2.43557963
H        0.65740317      -0.63156657      -2.45157240
C       -0.90989263      -0.90692880      -0.91072765
C        0.90977584       0.90977584      -0.90977584
C       -0.00465871       1.77757030       0.00794375
H       -0.66225468       2.44313916      -0.64384735
H        0.64322798       2.43503045       0.67728295
C       -1.78241447       0.00034974      -0.00472694
H       -2.45427497      -0.65498947       0.64260836
H       -2.43311707       0.67328779      -0.65473579
C       -0.91132561       0.90220522       0.91563759
C       -0.01476271      -0.02253852       1.78660255
H       -0.67934791      -0.69751639       2.42135241
H        0.63392994       0.61504881       2.47327442
C        0.01484550      -1.77751727      -0.01636693
H        0.67870853      -2.42144646      -0.68295456
H       -0.62264859      -2.45592969       0.64226336
C        1.78714474       0.01002794       0.00389507
H        2.44202412       0.67113390       0.66197326
H        2.45385902      -0.65136977      -0.64189061
C        0.91606151      -0.90478549       0.90901405
