173
Properties=species:S:1:pos:R:3 pbc="F F F"
C        0.00000000       0.00000000       0.00000000
C        3.47569926       4.60892500      -3.07190609
O        3.33087828       3.21718326      -3.32058252
C        2.50514439       2.50555995      -2.48816462
C        1.80107939       3.05271345      -1.40958399
C        0.99081848       2.24228666      -0.60811719
C        0.88171683       0.88171683      -0.88171683
C        1.57063672       0.32017453      -1.95309715
C        2.38171226       1.12802122      -2.76261469
C        3.08963216       0.49845363      -3.88316295
C        4.31253538      -0.03657477      -3.77182745
C        5.22531856      -0.10710201      -2.59008693
C        6.62061090      -0.23881103      -3.19329087
C        6.41189985      -0.88034669      -4.53390815
C        7.34656422      -1.55857111      -5.21535555
C        7.14066634      -2.21462287      -6.51159344
C        6.68108215      -3.53915428      -6.52041305
C        6.47290453      -4.19442158      -7.73151821
Br       5.86172669      -5.98350274      -7.73709313
C        6.72104076      -3.54547340      -8.93793948
C        7.17774581      -2.22435029      -8.93607482
C        7.38022319      -1.54730362      -7.72746767
O        7.85590377      -0.26157435      -7.64907340
C        7.51879608       0.58394279      -8.74359837
C        4.99866516      -0.64176625      -4.94355084
O        4.48338284      -0.88775638      -6.01573748
H        4.17130308       5.01042506      -3.81506027
H        3.90700145       4.79092745      -2.08202169
H        2.52149735       5.13232012      -3.19149171
H        1.85916065       4.10795470      -1.16432128
H        0.45035349       2.68402252       0.22534768
H        1.47795839      -0.74236246      -2.16608134
H        2.56335400       0.49867397      -4.83543812
H        4.98508298      -0.99539824      -1.99341791
H        5.16381640       0.77237347      -1.94229046
H        7.07050402       0.75255167      -3.32638673
H        7.27322449      -0.82973317      -2.54186137
H        8.35443663      -1.65306389      -4.81841005
H        6.48194737      -4.05124537      -5.58289478
H        6.56523079      -4.05663775      -9.88415147
H        7.37939703      -1.75098479      -9.89117696
H        7.71601301       1.61681414      -8.44091140
H        6.45711556       0.50905436      -9.00365296
H        8.15197597       0.36657047      -9.60961166
C       -3.54912995      -3.02053732      -4.58686308
O       -3.27851003      -3.35721697      -3.23291706
C       -2.49026328      -2.49857476      -2.51003091
C       -1.93044445      -1.31908607      -3.01384630
C       -1.12790949      -0.51221455      -2.20109829
C       -0.88171683      -0.88171683      -0.88171683
C       -1.43371505      -2.04888133      -0.36131202
C       -2.24218241      -2.86022343      -1.16994233
C       -2.80679661      -4.08102184      -0.58343028
C       -2.17923822      -5.26418517      -0.60436467
C       -0.86282965      -5.64188587      -1.20358795
C       -0.97569426      -7.14221797      -1.45717851
C       -1.97459640      -7.63804395      -0.45282096
C       -2.07144647      -8.90558816      -0.02631404
C       -3.02477079      -9.39088688       0.97802076
C       -2.65103448      -9.33965122       2.32834478
C       -3.52986082      -9.79033782       3.31019747
Br      -3.01687788      -9.72722005       5.12878085
C       -4.77922867     -10.29634295       2.96206479
C       -5.15859472     -10.34858114       1.61770553
C       -4.29178257      -9.88800034       0.61939568
O       -4.58485222      -9.93735237      -0.72119822
C       -5.96562446      -9.83012664      -1.05058615
C       -2.80424995      -6.47866398      -0.01753582
O       -3.79744513      -6.49558833       0.68166951
H       -4.17497367      -3.81249250      -5.00932225
H       -2.62683793      -2.97756591      -5.17554676
H       -4.10806674      -2.08159988      -4.65564256
H       -2.09916651      -0.99642409      -4.03584603
H       -0.70155677       0.40107808      -2.60854963
H       -1.24283482      -2.33056310       0.67172065
H       -3.79036847      -3.97707457      -0.13002305
H       -0.06037689      -5.43851844      -0.48420732
H       -0.63998431      -5.10695776      -2.13153825
H       -1.35096944      -7.32751314      -2.47095984
H       -0.00026519      -7.62969310      -1.35539439
H       -1.41571956      -9.67242112      -0.43164211
H       -1.67885741      -8.94291820       2.60817882
H       -5.46431684     -10.65430082       3.72587316
H       -6.13094532     -10.76453703       1.37589315
H       -6.03795063      -9.61480756      -2.12098036
H       -6.44999226      -9.00863610      -0.51119452
H       -6.48148060     -10.77821428      -0.86846321
C       -3.39266640       3.13684641       4.62701754
O       -3.29130890       3.35152988       3.22580528
C       -2.48924555       2.50059916       2.50902425
C       -1.76074132       1.44113254       3.06150296
C       -0.95872765       0.63321555       2.24927913
C       -0.88171683       0.88171683       0.88171683
C       -1.60276471       1.92796973       0.31317396
C       -2.41152333       2.73929933       1.12152550
C       -3.15715472       3.83035330       0.48374072
C       -2.66044635       5.06393258       0.32340913
C       -1.34030582       5.62857020       0.73942745
C       -1.58776409       7.12949955       0.85782709
C       -2.72602538       7.41664463      -0.07720870
C       -2.99832738       8.61612817      -0.61110689
C       -4.09035854       8.89725080      -1.54997244
C       -3.84518544       8.73837869      -2.92122320
C       -4.85763055       8.99483015      -3.84245954
Br      -4.51852213       8.78761854      -5.69082359
C       -6.11448347       9.41233024      -3.41330688
C       -6.36590971       9.57101492      -2.04745430
C       -5.36271114       9.30537154      -1.10769544
O       -5.52879320       9.46911545       0.24549417
C       -6.85200826       9.26509567       0.72923332
C       -3.46520282       6.14287758      -0.30763066
O       -4.51726694       5.98923661      -0.89513959
H       -4.05585058       3.90535611       5.03558172
H       -2.41863901       3.24607563       5.11523595
H       -3.83889904       2.16114682       4.84526331
H       -1.79475131       1.21469608       4.12198925
H       -0.40001432      -0.18597723       2.69499123
H       -1.54351442       2.11480973      -0.75664686
H       -4.16309803       3.58427221       0.15009585
H       -0.59381817       5.42784287      -0.03855838
H       -0.97321916       5.21977254       1.68548862
H       -1.88121203       7.38495178       1.88327861
H       -0.68434356       7.69505027       0.60595886
H       -2.39223793       9.48146839      -0.35392353
H       -2.86772604       8.40959106      -3.26372032
H       -6.90428790       9.61897360      -4.13051701
H       -7.34925812       9.91474872      -1.74441763
H       -6.79742285       9.15934426       1.81697144
H       -7.29560565       8.34786667       0.32635056
H       -7.48129199      10.13415616       0.51270995
C        3.67059290      -4.53870738       2.94723006
O        3.31719247      -3.21758087       3.33387072
C        2.50715969      -2.50333209       2.48837717
C        2.01004428      -2.98228783       1.27104471
C        1.19874607      -2.17301412       0.46946213
C        0.88171683      -0.88171683       0.88171683
C        1.36286856      -0.38940011       2.09163973
C        2.17370159      -1.19709251       2.90155407
C        2.65898374      -0.64203278       4.17023222
C        3.80598137       0.04058054       4.28238724
C        4.83200595       0.37004785       3.24634537
C        6.11899458       0.58195528       4.03805144
C        5.67473040       1.01414923       5.40488015
C        6.42762203       1.70075306       6.27647970
C        5.98935390       2.15337146       7.60165446
C        5.36251357       3.40334882       7.70317617
C        4.93193499       3.86606951       8.94413568
Br       4.09542438       5.55638578       9.07627849
C        5.12184102       3.09789827      10.08956409
C        5.74459728       1.85003449       9.99490754
C        6.17212401       1.36488350       8.75314672
O        6.81777214       0.16407430       8.58970498
C        6.47005442      -0.85059779       9.52568504
C        4.26708688       0.56242646       5.59578934
O        3.60370534       0.60485865       6.61251725
H        4.32222742      -4.95094143       3.72361957
H        4.23340660      -4.53860000       2.00794399
H        2.78569868      -5.17991398       2.87969651
H        2.23361706      -3.98254122       0.91527836
H        0.82062088      -2.56134499      -0.47293754
H        1.10800282       0.61826460       2.41193906
H        2.03083518      -0.82761478       5.03901612
H        4.54814715       1.29503235       2.72998786
H        4.96132181      -0.41828319       2.49887532
H        6.67631446      -0.35965187       4.11347610
H        6.75951432       1.32440505       3.55024341
H        7.45350819       1.96212416       6.02839876
H        5.20770761       4.00724114       6.81313032
H        4.79227119       3.45943121      11.05990451
H        5.89478385       1.28226361      10.90706896
H        6.83433291      -1.80524340       9.13416224
H        5.38483453      -0.93349129       9.65149706
H        6.96506663      -0.67673872      10.48635274
