181
Properties=species:S:1:pos:R:3 pbc="F F F"
C        0.00000000       0.00000000       0.00000000
C        3.47569926       4.60892500      -3.07190609
O        3.33087828       3.21718326      -3.32058252
C        2.50514439       2.50555995      -2.48816462
C        1.80107939       3.05271345      -1.40958399
C        0.99081848       2.24228666      -0.60811719
C        0.88171683       0.88171683      -0.88171683
C        1.57063672       0.32017453      -1.95309715
C        2.38171226       1.12802122      -2.76261469
C        3.08963216       0.49845363      -3.88316295
C        4.31253538      -0.03657477      -3.77182745
C        5.22531856      -0.10710201      -2.59008693
C        6.62061090      -0.23881103      -3.19329087
C        6.41189985      -0.88034669      -4.53390815
C        7.34656422      -1.55857111      -5.21535555
C        7.14066634      -2.21462287      -6.51159344
C        6.68108215      -3.53915428      -6.52041305
C        6.47290453      -4.19442158      -7.73151821
C        6.72104076      -3.54547340      -8.93793948
C        7.17774581      -2.22435029      -8.93607482
C        7.38022319      -1.54730362      -7.72746767
O        7.85590377      -0.26157435      -7.64907340
C        7.51879608       0.58394279      -8.74359837
C        4.99866516      -0.64176625      -4.94355084
O        4.48338284      -0.88775638      -6.01573748
H        4.17130308       5.01042506      -3.81506027
H        3.90700145       4.79092745      -2.08202169
H        2.52149735       5.13232012      -3.19149171
H        1.85916065       4.10795470      -1.16432128
H        0.45035349       2.68402252       0.22534768
H        1.47795839      -0.74236246      -2.16608134
H        2.56335400       0.49867397      -4.83543812
H        4.98508298      -0.99539824      -1.99341791
H        5.16381640       0.77237347      -1.94229046
H        7.07050402       0.75255167      -3.32638673
H        7.27322449      -0.82973317      -2.54186137
H        8.35443663      -1.65306389      -4.81841005
H        6.48194737      -4.05124537      -5.58289478
H        6.56523079      -4.05663775      -9.88415147
H        7.37939703      -1.75098479      -9.89117696
H        7.71601301       1.61681414      -8.44091140
H        6.45711556       0.50905436      -9.00365296
H        8.15197597       0.36657047      -9.60961166
C        6.00739382      -5.55709606      -7.73576441
C        5.61752860      -6.69833594      -7.73932061
Br       4.98714951      -8.54362430      -7.74507068
C       -2.80906095      -4.29276394      -4.05470546
O       -3.36087462      -3.26564828      -3.24212116
C       -2.49268007      -2.51099133      -2.49519756
C       -1.10434481      -2.68555907      -2.47347294
C       -0.30052312      -1.87229972      -1.66839948
C       -0.88171683      -0.88171683      -0.88171683
C       -2.26042567      -0.68984204      -0.89364069
C       -3.07143424      -1.49948222      -1.70143171
C       -4.51972648      -1.26413872      -1.68738353
C       -5.35334011      -1.86573443      -0.82871352
C       -5.06956868      -2.87532175       0.23658696
C       -6.39306502      -3.61001036       0.42798464
C       -7.45181872      -2.62943748       0.01579488
C       -8.73421552      -2.67405998       0.40492684
C       -9.76723177      -1.70139429       0.03098916
C       -9.93277535      -0.56537699       0.83581142
C      -10.90235050       0.38041265       0.51193668
C      -11.71410635       0.20618445      -0.60558494
C      -11.55299760      -0.92339325      -1.41307948
C      -10.57461756      -1.87736666      -1.10840301
O      -10.38106617      -3.02458017      -1.83775647
C      -10.69356335      -2.92944175      -3.22333214
C       -6.81759994      -1.61241793      -0.87043187
O       -7.36607209      -0.73648223      -1.50880962
H       -3.63611585      -4.79518326      -4.56548930
H       -2.29074109      -5.04198382      -3.44722568
H       -2.14745180      -3.87650550      -4.82135187
H       -0.61355809      -3.44547382      -3.07240473
H        0.77636986      -2.02123012      -1.66416806
H       -2.70930075       0.08895556      -0.28133208
H       -4.89336086      -0.56834585      -2.43575937
H       -4.78414641      -2.36140605       1.16244980
H       -4.27229218      -3.57499642      -0.03119173
H       -6.43450740      -4.49112847      -0.22380655
H       -6.50877884      -3.94184012       1.46526628
H       -9.08549904      -3.47956818       1.04528443
H       -9.30071498      -0.42070336       1.70782155
H      -12.47548326       0.93967612      -0.85693736
H      -12.21210577      -1.04072490      -2.26675854
H      -10.25243754      -3.79579311      -3.72550790
H      -10.26624346      -2.02775070      -3.67582872
H      -11.77610204      -2.97251519      -3.37954087
C      -11.07356770       1.54224747       1.34525807
C      -11.21696211       2.51528413       2.04316472
Br     -11.44881875       4.08860211       3.17162076
C       -4.14983359       4.20735955       2.79933721
O       -3.27874279       3.23277001       3.35713126
C       -2.51052630       2.49722944       2.49111321
C       -2.52902999       2.63568091       1.09866592
C       -1.71600569       1.82955969       0.29565694
C       -0.88171683       0.88171683       0.88171683
C       -0.84601208       0.73260219       2.26529414
C       -1.65599310       1.54027622       3.07607885
C       -1.58777526       1.35356530       4.52990818
C       -2.36303084       0.48825092       5.19650630
C       -3.43670603      -0.42249704       4.69409449
C       -4.33123538      -0.66273490       5.90659027
C       -3.43945284      -0.47262406       7.09863253
C       -3.66720845      -0.98183252       8.31797274
C       -2.78421055      -0.82604323       9.47946958
C       -1.76121367      -1.76618714       9.66731439
C       -0.90270106      -1.65044990      10.75775001
C       -1.05336844      -0.60819672      11.66833512
C       -2.07022891       0.33341588      11.48582554
C       -2.93390037       0.23846676      10.38802010
O       -3.97243798       1.10810010      10.16286473
C       -3.77356368       2.43545341      10.63732015
C       -2.27320912       0.35302883       6.67421180
O       -1.40457576       0.83006159       7.37672660
H       -4.68794403       4.68524553       3.62359885
H       -4.89348041       3.74356139       2.14290880
H       -3.58643966       4.98518828       2.27368123
H       -3.16444985       3.36283731       0.60414948
H       -1.74245086       1.95094918      -0.78437172
H       -0.18856124      -0.00566751       2.71878354
H       -0.86642078       1.97727085       5.05377446
H       -2.99012996      -1.36670811       4.35968080
H       -4.01154495       0.00150427       3.86543111
H       -5.14102326       0.07653651       5.93188265
H       -4.77707920      -1.66242949       5.87070297
H       -4.56768801      -1.55966122       8.51175600
H       -1.63517795      -2.58058367       8.95900250
H       -0.38860748      -0.51921767      12.52335469
H       -2.17413349       1.12388206      12.22157366
H       -4.52956117       3.07392802      10.17024936
H       -2.78843195       2.82444015      10.35695078
H       -3.92219292       2.48533158      11.72063360
C        0.14229820      -2.62224399      10.95060436
C        1.01748508      -3.43612154      11.11211988
Br       2.43258824      -4.75209270      11.37327682
C        2.95240016      -4.54293879       3.66119139
O        3.35993198      -3.23891040       3.26980168
C        2.49718453      -2.51054037       2.49114405
C        1.24824911      -2.96363103       2.05149668
C        0.44209608      -2.15061670       1.24850955
C        0.88171683      -0.88171683       0.88171683
C        2.11894885      -0.41175094       1.31320860
C        2.93026540      -1.22059098       2.12149179
C        4.22629567      -0.68791725       2.55703582
C        5.35612824      -0.83821026       1.85344956
C        5.59464285      -1.55188886       0.56177176
C        7.07840801      -1.90638913       0.59029360
C        7.71341720      -0.87524603       1.47679808
C        9.01078496      -0.53710722       1.45545649
C        9.63198014       0.49167506       2.29733182
C        9.64574532       1.81347573       1.83007134
C       10.22551237       2.81734168       2.60183047
C       10.79673009       2.51912651       3.83590325
C       10.78478162       1.20357125       4.30825997
C       10.19492729       0.18487500       3.55033495
O       10.17404378      -1.13260933       3.93674971
C       10.14601249      -1.35829756       5.34202720
C        6.65031567      -0.30063833       2.34949574
O        6.78759333       0.46156967       3.28534028
H        3.75739559      -4.97858502       4.26080780
H        2.80193859      -5.18843563       2.78957638
H        2.05442134      -4.50447713       4.28641071
H        0.86984621      -3.94535781       2.31623262
H       -0.52563136      -2.51821835       0.91644133
H        2.45570714       0.58244313       1.02841327
H        4.22583614      -0.16207710       3.50955285
H        5.38260023      -0.87596734      -0.27546492
H        4.98277758      -2.45120405       0.44449869
H        7.22109994      -2.90305039       1.02529209
H        7.49893962      -1.90735936      -0.42094629
H        9.69809236      -1.04129381       0.78039662
H        9.19889297       2.05464150       0.86934531
H       11.25517049       3.29961805       4.43719205
H       11.25336676       0.99884021       5.26506267
H        9.86405221      -2.40261334       5.50707300
H        9.40091730      -0.72840721       5.84049837
H       11.13954403      -1.21133552       5.77727855
C       10.24355454       4.17239861       2.11490624
C       10.25866485       5.30725879       1.70710719
Br      10.28309696       7.14223171       1.04773063
