185
Properties=species:S:1:pos:R:3 pbc="F F F"
C        0.00000000       0.00000000       0.00000000
C        4.59038180       2.90534610      -3.54878149
O        3.23834135       3.29075656      -3.33168295
C        2.50937120       2.47151000      -2.50670736
C        3.06134888       1.76795912      -1.43136126
C        2.24853520       0.96667125      -0.62427490
C        0.88156743       0.88156743      -0.88156743
C        0.31474673       1.58914210      -1.93927114
C        1.12571070       2.38689668      -2.75548024
C        0.52030978       3.07013042      -3.90282991
C        0.07547471       4.33813304      -3.91181622
C        0.05454840       5.30906801      -2.76718674
C        0.52879941       6.70199755      -3.17767601
C       -0.23104590       7.20421832      -4.40338966
C       -0.08017101       6.24141454      -5.54437154
C        0.35930674       6.61470223      -6.76150817
C        0.64216529       5.70540431      -7.88118546
C        1.84117774       4.97636217      -7.86705338
C        2.13487895       4.09988005      -8.90923595
Br       3.75690820       3.12716205      -8.88605868
C        1.24880426       3.94144273      -9.97155375
C        0.05353124       4.66477834      -9.99199207
C       -0.26120974       5.53959933      -8.94553634
O       -1.40339445       6.30099311      -8.92779867
C       -2.56356148       5.63307027      -9.41453103
C       -0.41207082       4.81837101      -5.23942854
O       -1.04520363       4.09692106      -6.00014900
H        4.96568776       3.47681884      -4.40296813
H        4.67124822       1.84131441      -3.79646808
H        5.21113937       3.15607798      -2.68288385
H        4.11856844       1.83307462      -1.19450477
H        2.69136276       0.41660446       0.20258665
H       -0.75120182       1.51262571      -2.14141658
H        0.49218142       2.46643957      -4.81086821
H        0.66906261       4.96393989      -1.92847320
H       -0.97460991       5.37679144      -2.39329544
H        0.38238806       7.39953909      -2.34459875
H        1.60584388       6.67940251      -3.38996376
H       -1.29612178       7.31854958      -4.16533401
H        0.14229181       8.19972816      -4.67245918
H        0.57308532       7.65889852      -6.97509147
H        2.53855620       5.09312108      -7.04160362
H        1.47842075       3.26363517     -10.78937496
H       -0.61266827       4.54176637     -10.83951744
H       -3.44017018       6.17762305      -9.05018557
H       -2.63194086       4.60326295      -9.04554715
H       -2.58848268       5.65793804     -10.50891594
C       -3.35350939      -4.64697532      -3.04402468
O       -3.33690636      -3.24416910      -3.27970541
C       -2.50203023      -2.51322525      -2.47233307
C       -1.29306962      -3.00138042      -1.96621922
C       -0.48733845      -2.18800563      -1.16413726
C       -0.88156743      -0.88156743      -0.88156743
C       -2.07527395      -0.37613487      -1.39175116
C       -2.88976505      -1.18921231      -2.18911027
C       -4.17310041      -0.65959148      -2.66057822
C       -4.38902644      -0.08190147      -3.85449607
C       -3.38358714       0.18859898      -4.93581499
C       -3.90935660      -0.17614811      -6.32296826
C       -5.26449755       0.47599148      -6.58805601
C       -6.25298615       0.07870976      -5.53133867
C       -7.45102437      -0.46491648      -5.81957629
C       -8.41057667      -0.98377116      -4.83440723
C       -8.17330768      -2.24488413      -4.26640148
C       -9.05933453      -2.76115282      -3.32350760
Br      -8.73603847      -4.46519029      -2.56890017
C      -10.18505367      -2.03723984      -2.93950723
C      -10.42741688      -0.78123022      -3.50165455
C       -9.53929575      -0.24386705      -4.44076313
O       -9.74288560       0.96875646      -5.05126818
C      -10.26791820       1.97827853      -4.19440016
C       -5.81180215       0.28662155      -4.12054814
O       -6.54206647       0.73643365      -3.24623361
H       -4.22543636      -5.06022227      -3.55981610
H       -3.45630910      -4.87518778      -1.97753382
H       -2.46229253      -5.12352898      -3.46427967
H       -0.95074675      -4.00714915      -2.18825193
H        0.44542835      -2.58250631      -0.76830260
H       -2.38291580       0.64130265      -1.16122732
H       -4.99640246      -0.81166205      -1.96142468
H       -2.44567111      -0.35105869      -4.76474591
H       -3.13712696       1.25743201      -4.91578202
H       -3.19095122       0.14906730      -7.08464197
H       -3.99679448      -1.26708740      -6.41132827
H       -5.16175093       1.56847969      -6.59449057
H       -5.61249301       0.18442109      -7.58640723
H       -7.76801054      -0.58686385      -6.85220092
H       -7.29682143      -2.81683680      -4.55962267
H      -10.88167442      -2.44041747      -2.20933899
H      -11.32144495      -0.24346129      -3.20370930
H      -10.07337826       2.94821896      -4.66247913
H       -9.78341798       1.97779719      -3.21124845
H      -11.35287626       1.86933282      -4.09482785
C       -3.96642285       2.72530918       4.35277736
O       -3.23794801       3.33116383       3.29166902
C       -2.48861213       2.47931050       2.51966593
C       -2.85227281       1.15543228       2.25296416
C       -2.04418112       0.35457780       1.44072243
C       -0.88156743       0.88156743       0.88156743
C       -0.51474926       2.20322527       1.12518544
C       -1.31646424       3.00722798       1.94439541
C       -0.87753261       4.37427617       2.24146133
C       -1.26352992       5.47975682       1.58213724
C       -2.17424996       5.56467131       0.39188187
C       -3.19392889       6.69499126       0.51955282
C       -2.50972881       8.02053801       0.84629526
C       -1.70279161       7.89744356       2.10537989
C       -1.85177035       8.73119297       3.15255382
C       -1.18180353       8.59337518       4.45357635
C       -1.67379720       7.64615225       5.36464383
C       -1.05592768       7.48528571       6.60278156
Br      -1.73054758       6.21176118       7.82782018
C        0.04766716       8.26053044       6.94893746
C        0.54215058       9.20583861       6.04661362
C       -0.06029923       9.36984908       4.79377762
O        0.36002483      10.30478988       3.88063228
C        1.77419049      10.45630654       3.80192378
C       -0.73891878       6.75845165       2.14835832
O        0.39757859       6.85485473       2.59459030
H       -4.29816219       3.52199861       5.02531393
H       -3.33916658       2.03844802       4.93141610
H       -4.85891483       2.21803411       3.97315224
H       -3.76334572       0.72569817       2.65710395
H       -2.33248630      -0.67621529       1.24910955
H        0.39813604       2.60737655       0.69359996
H       -0.21646810       4.44699446       3.10602663
H       -2.71287332       4.62580054       0.22280184
H       -1.55865872       5.73658680      -0.49976854
H       -3.75267325       6.79254606      -0.41869341
H       -3.92390321       6.44923179       1.30207515
H       -1.84954505       8.31684034       0.02137642
H       -3.27230520       8.80330681       0.93886714
H       -2.53991071       9.57081711       3.09634749
H       -2.53438221       7.03609497       5.10280372
H        0.52746414       8.14210038       7.91679463
H        1.38997810       9.81365969       6.34493394
H        2.00554975      10.94353159       2.84965659
H        2.29401644       9.49152424       3.81936144
H        2.13438414      11.10821431       4.60454113
C        2.69975518      -4.18563711       4.15911709
O        3.32358428      -3.30296896       3.23422762
C        2.47588627      -2.51798672       2.49371556
C        1.24994104      -2.04153213       2.96919610
C        0.44945336      -1.23029377       2.15973422
C        0.88156743      -0.88156743       0.88156743
C        2.10756574      -1.33536190       0.40023233
C        2.90952528      -2.15460414       1.20395820
C        4.16471882      -2.67521448       0.65333680
C        5.37930823      -2.12522537       0.82089038
C        5.71793511      -0.85948076       1.55338728
C        6.94898591      -1.01504280       2.44444426
C        8.12802614      -1.58764486       1.66089108
C        7.75738272      -2.90429964       1.04393270
C        8.47764139      -4.02685551       1.23102024
C        8.10548281      -5.36717465       0.75609761
C        7.13195057      -6.08486201       1.46778071
C        6.75108213      -7.35427267       1.03864015
Br       5.44387890      -8.31780434       2.00844570
C        7.33142607      -7.92262886      -0.09225419
C        8.30174519      -7.21358970      -0.80503324
C        8.68539352      -5.93188225      -0.39334984
O        9.65638197      -5.20232438      -1.03330902
C        9.63086327      -5.30685162      -2.45367506
C        6.50545213      -2.90926807       0.23100854
O        6.40147303      -3.49174364      -0.84135024
H        3.45027595      -4.91343303       4.48176575
H        1.87535424      -4.73826208       3.69541438
H        2.35973030      -3.64337805       5.04699284
H        0.89871701      -2.27910841       3.96832242
H       -0.50625996      -0.87452926       2.53711126
H        2.43650985      -1.06763919      -0.60130857
H        4.05117130      -3.61202614       0.10629176
H        4.88269450      -0.50911565       2.16966556
H        5.90961375      -0.07435180       0.81151142
H        7.22538914      -0.03954089       2.86159586
H        6.71197489      -1.66996879       3.29326647
H        8.42875123      -0.88952056       0.86949002
H        8.98740889      -1.69299061       2.33407965
H        9.40042542      -4.00161105       1.80503884
H        6.67303177      -5.64890978       2.35133935
H        7.04132384      -8.91551678      -0.42540975
H        8.75593144      -7.68371428      -1.67103019
H       10.18996642      -4.45888810      -2.86121609
H        8.61114101      -5.25832661      -2.85259838
H       10.13394242      -6.22338016      -2.77895128
