161
Properties=species:S:1:pos:R:3 pbc="F F F"
C        0.00000000       0.00000000       0.00000000
C        4.04028931       2.25264943      -7.40700442
N        3.08104387       1.18349736      -7.67255543
C        2.96955520       0.22523194      -6.57051292
C        2.28669480       0.77069040      -5.34963000
C        2.79116951       0.61163339      -4.10939465
C        2.22918340       1.15855438      -2.87277611
C        2.49673871       2.48351621      -2.50253539
C        1.95879816       3.00292306      -1.32366737
C        1.15467517       2.19966112      -0.52006680
F        0.65368258       2.72021324       0.61004644
C        0.88241636       0.88241636      -0.88241636
C        1.41955598       0.35704867      -2.05853587
C        1.02042314       1.51888189      -5.60755009
O        0.07261251       1.51847309      -4.83063767
C        0.98363312       2.27716877      -6.89094972
C        0.27328465       3.42033752      -6.88220491
C        0.16239363       4.32542178      -8.02405038
C        1.07417001       5.38031533      -8.16073331
C        0.98547413       6.24511651      -9.25229772
C       -0.01199172       6.05358194     -10.20330460
F       -0.07642547       6.89686831     -11.24370291
C       -0.92243943       5.00639873     -10.07425670
Br      -2.27716767       4.74601938     -11.36774606
C       -0.83837449       4.13772318      -8.98436234
C        1.75574551       1.69289257      -8.03648483
H        4.14924884       2.89291165      -8.28957053
H        5.03187943       1.83371478      -7.20316345
H        3.75809382       2.88769824      -6.56040463
H        3.96852091      -0.15940531      -6.32586474
H        2.40616288      -0.65094450      -6.91981110
H        3.71425675       0.05422930      -3.96565283
H        3.11886585       3.11788041      -3.12918553
H        2.15673456       4.02807423      -1.02734387
H        1.19581147      -0.66536168      -2.35201362
H       -0.25228872       3.74590696      -5.98461863
H        1.85494418       5.53507313      -7.41865402
H        1.68577367       7.06687061      -9.36734358
H       -1.54931146       3.32117443      -8.87880846
H        1.16844521       0.86247215      -8.45201427
H        1.86230051       2.40295109      -8.86460924
C       -6.22554914      -5.92481403      -1.54957998
N       -6.28369946      -5.50029873      -0.15309847
C       -4.96433010      -5.21752225       0.41655229
C       -4.32018547      -3.97037969      -0.11645005
C       -3.03789021      -3.94205206      -0.53225528
C       -2.34695527      -2.79289530      -1.12066333
C       -2.49632630      -2.50281511      -2.48364889
C       -1.83746033      -1.40596686      -3.04196141
C       -1.03414494      -0.60181852      -2.23843963
F       -0.40773626       0.44322908      -2.79934220
C       -0.88241636      -0.88241636      -0.88241636
C       -1.53666819      -1.97910248      -0.31936985
C       -5.20532430      -2.76906830      -0.17246253
O       -4.79567682      -1.62713739       0.00109093
C       -6.64112867      -3.05365525      -0.45696770
C       -7.30228228      -2.11466536      -1.15887944
C       -8.69637197      -2.23573156      -1.57976226
C       -8.99457986      -2.78857796      -2.83206083
C      -10.32227250      -2.91945229      -3.24116357
C      -11.34696296      -2.49889658      -2.39903528
F      -12.61463763      -2.63576925      -2.81373887
C      -11.05818141      -1.94819283      -1.15184176
Br     -12.45139935      -1.37784003      -0.00735839
C       -9.73163589      -1.81506948      -0.73700566
C       -7.17901372      -4.35805910       0.05194992
H       -7.22433724      -6.20383848      -1.90355528
H       -5.59950390      -6.81816230      -1.65109145
H       -5.83116142      -5.15431057      -2.22072469
H       -4.31493670      -6.09090223       0.27085858
H       -5.06406013      -5.11704619       1.50607685
H       -2.42612253      -4.83935221      -0.46866415
H       -3.12741360      -3.12338787      -3.11513033
H       -1.94701073      -1.16959270      -4.09554923
H       -1.43298070      -2.19114948       0.74166676
H       -6.80423104      -1.19841172      -1.47559412
H       -8.19650465      -3.11738065      -3.49478604
H      -10.56479248      -3.34499507      -4.21020030
H       -9.50246256      -1.38275105       0.23454218
H       -7.36170954      -4.25132533       1.13010323
H       -8.15996359      -4.59311003      -0.37678722
C       -3.99621785       2.28172822       7.42199709
N       -3.02558613       1.22311527       7.68839527
C       -2.91526107       0.25639492       6.59364407
C       -2.24754862       0.79713731       5.36232928
C       -2.76119163       0.62312754       4.12787838
C       -2.21449133       1.16416662       2.88185595
C       -2.49657560       2.48356702       2.50264769
C       -1.97319021       2.99738553       1.31481285
C       -1.16907017       2.19412802       0.51120491
F       -0.68222423       2.70919593      -0.62757079
C       -0.88241636       0.88241636       0.88241636
C       -1.40497307       0.36262065       2.06754681
C       -0.98560414       1.55828646       5.60296452
O       -0.04448259       1.55927764       4.81796306
C       -0.94439587       2.32786634       6.87948941
C       -0.24400323       3.47693175       6.85489210
C       -0.13116831       4.39271284       7.98798464
C       -1.05078285       5.44093147       8.12350432
C       -0.96022373       6.31581089       9.20685373
C        0.04692310       6.14097063      10.15084729
F        0.11297068       6.99369005      11.18342638
C        0.96520786       5.10051609      10.02290778
Br       2.33310248       4.86282647      11.30687378
C        0.87932689       4.22181642       8.94122150
C       -1.70166233       1.74690033       8.03656024
H       -4.10315070       2.92860312       8.29997719
H       -4.98587092       1.85261839       7.23026835
H       -3.72672051       2.91185691       6.56761925
H       -3.91293196      -0.13883376       6.36088215
H       -2.34139876      -0.61191108       6.94554180
H       -3.68064391       0.05665915       3.99683582
H       -3.11876941       3.11796922       3.12919317
H       -2.18245270       4.01822631       1.01147365
H       -1.16995218      -0.65528397       2.36779520
H        0.27108045       3.79924016       5.95007717
H       -1.83915659       5.58264134       7.38687340
H       -1.66655680       7.13252395       9.32090711
H        1.59633278       3.41048063       8.83652357
H       -1.10372260       0.92512028       8.45408875
H       -1.80725507       2.46311882       8.85948694
C        5.31216731      -6.73018131       1.65759454
N        5.15228527      -6.57035534       0.21445606
C        3.81144100      -6.12250787      -0.16864881
C        3.51254454      -4.69730059       0.19717008
C        2.36745850      -4.33487021       0.80986884
C        2.01825394      -2.98502110       1.25723885
C        2.49260901      -2.50473299       2.48544831
C        2.15921260      -1.21701789       2.90915810
C        1.35599616      -0.41293491       2.10547202
F        1.04561020       0.81860864       2.53684781
C        0.88241636      -0.88241636       0.88241636
C        1.21041751      -2.16982779       0.45489522
C        4.58114655      -3.71273007      -0.14702150
O        4.34460874      -2.55731761      -0.48020307
C        5.97506924      -4.23478355      -0.05810117
C        6.91648851      -3.34705932       0.31227925
C        8.32612465      -3.67976435       0.50597679
C        8.77786319      -4.06125397       1.77610149
C       10.11942070      -4.39171664       1.97175101
C       11.00459930      -4.34088430       0.89941122
F       12.28845759      -4.66379616       1.11189199
C       10.56263326      -3.96253637      -0.36695363
Br      11.76602316      -3.89473677      -1.82416216
C        9.22138067      -3.63111715      -0.56878679
C        6.16680960      -5.68916054      -0.37084723
H        6.30024023      -7.14493190       1.88655888
H        4.57804986      -7.44466644       2.04604136
H        5.20145940      -5.79232531       2.21241197
H        3.06733014      -6.80542862       0.26222159
H        3.69988709      -6.23136265      -1.25622025
H        1.61237356      -5.08415879       1.03760653
H        3.12556398      -3.12562115       3.11474666
H        2.52225361      -0.83283485       3.85706419
H        0.85562290      -2.53304316      -0.50620264
H        6.65754380      -2.30758801       0.51310506
H        8.08964326      -4.10089207       2.61813600
H       10.48069870      -4.68717101       2.95211815
H        8.87359719      -3.33231307      -1.55523883
H        6.13861298      -5.80716593      -1.46284728
H        7.16058448      -6.04515561      -0.07587925
