182
Properties=species:S:1:pos:R:3 pbc="F F F"
C        4.95019333       3.16255346      -8.31690844
N        3.99094790       2.09340139      -8.58245946
C        3.87945923       1.13513596      -7.48041695
C        3.19659883       1.68059443      -6.25953403
C        3.70107353       1.52153741      -5.01929868
C        3.13908742       2.06845841      -3.78268014
C        3.40664273       3.39342023      -3.41243942
C        2.86870219       3.91282709      -2.23357139
C        2.06457920       3.10956514      -1.42997082
F        1.56358660       3.63011726      -0.29985759
C        1.79232039       1.79232039      -1.79232039
C        2.32946000       1.26695270      -2.96843989
C        1.93032717       2.42878592      -6.51745412
O        0.98251654       2.42837712      -5.74054170
C        1.89353715       3.18707280      -7.80085375
C        1.18318868       4.33024154      -7.79210894
C        1.07229765       5.23532580      -8.93395441
C        1.98407403       6.29021936      -9.07063733
C        1.89537816       7.15502053     -10.16220174
C        0.89791231       6.96348596     -11.11320862
F        0.83347855       7.80677234     -12.15360693
C       -0.01253540       5.91630275     -10.98416073
Br      -1.36726365       5.65592341     -12.27765009
C        0.07152953       5.04762720      -9.89426637
C        2.66564953       2.60279659      -8.94638885
H        5.05915286       3.80281567      -9.19947455
H        5.94178346       2.74361880      -8.11306747
H        4.66799784       3.79760226      -7.47030865
H        4.87842493       0.75049871      -7.23576877
H        3.31606690       0.25895952      -7.82971512
H        4.62416077       0.96413332      -4.87555686
H        4.02876988       4.02778444      -4.03908955
H        3.06663858       4.93797825      -1.93724790
H        2.10571550       0.24454235      -3.26191764
H        0.65761531       4.65581099      -6.89452265
H        2.76484820       6.44497716      -8.32855805
H        2.59567769       7.97677464     -10.27724761
H       -0.63940744       4.23107845      -9.78871249
H        2.07834923       1.77237617      -9.36191830
H        2.77220453       3.31285511      -9.77451326
C       -5.27576454      -8.18834288      -2.96554781
N       -4.86465476      -8.23743935      -1.56471464
C       -3.56591685      -7.60423242      -1.32486287
C       -3.58052168      -6.10792585      -1.44827976
C       -2.65212848      -5.43351900      -2.15626214
C       -2.62177938      -3.98696110      -2.38148549
C       -3.39913733      -3.41540324      -3.39796181
C       -3.36932757      -2.03587828      -3.60989481
C       -2.56616027      -1.23190032      -2.80605457
F       -2.55095814       0.09004783      -3.03265114
C       -1.79232039      -1.79232039      -1.79232039
C       -1.81621601      -3.17111599      -1.57752059
C       -4.70681874      -5.42103899      -0.74870948
O       -4.60096137      -4.31164571      -0.23882828
C       -5.98721287      -6.18429274      -0.70995808
C       -7.11464087      -5.44982416      -0.74107413
C       -8.46156986      -6.01598774      -0.76402027
C       -9.08495807      -6.26655293      -1.99341972
C      -10.36679942      -6.81690274      -2.02889827
C      -11.02115147      -7.11561946      -0.83783596
F      -12.25171960      -7.64463150      -0.89750672
C      -10.40743823      -6.86939341       0.38890356
Br     -11.29693178      -7.27665687       2.00727881
C       -9.12483694      -6.31918502       0.43059885
C       -5.87462448      -7.67918936      -0.66102113
H       -6.20857084      -8.74557825      -3.10729400
H       -4.52556363      -8.67232177      -3.60058433
H       -5.43001044      -7.16939575      -3.33650257
H       -2.81949593      -8.04882397      -1.99637251
H       -3.22740712      -7.86472619      -0.31260824
H       -1.84452341      -5.97321424      -2.64611331
H       -4.03334103      -4.03728444      -4.02501840
H       -3.96851955      -1.58110205      -4.39224313
H       -1.22582984      -3.60937771      -0.77696794
H       -7.07277972      -4.36122364      -0.77394558
H       -8.57780966      -6.03306435      -2.92750940
H      -10.85999093      -7.01373397      -2.97597503
H       -8.64404932      -6.12274693       1.38641275
H       -5.61436794      -7.96557175       0.36729599
H       -6.83543197      -8.16997605      -0.85416489
C       -3.30925807       4.73625716       8.38414000
N       -1.96953606       4.17157803       8.52569465
C       -1.79094343       2.92310933       7.78095937
C       -1.74792490       3.09841226       6.29039013
C       -2.46586653       2.32397874       5.45206435
C       -2.53341405       2.46105264       3.99575928
C       -3.39975364       3.39740686       3.41534188
C       -3.46143390       3.52695914       2.02670763
C       -2.65751232       2.72379807       1.22280477
F       -2.73855514       2.86373241      -0.10872610
C       -1.79232039       1.79232039       1.79232039
C       -1.72830721       1.65667667       3.17986871
C       -0.86992725       4.20357714       5.80306281
O       -0.25468761       4.15236107       4.74438667
C       -0.78898054       5.39062336       6.70185979
C       -0.62839683       6.58150899       6.09563334
C       -0.58036730       7.86052325       6.80068732
C       -1.76239131       8.58690801       6.99563139
C       -1.73143809       9.80447147       7.67669087
C       -0.52157540      10.29201155       8.16101994
F       -0.51726667      11.46360745       8.81298369
C        0.65829588       9.57506000       7.97116396
Br       2.30210344      10.23775528       8.63065801
C        0.63340139       8.35605101       7.29077348
C       -0.91516333       5.12668871       8.17298293
H       -3.41854193       5.61953098       9.02337018
H       -4.06419379       4.01601744       8.71825851
H       -3.54953918       5.02974288       7.35662669
H       -2.57727498       2.21447650       8.07294093
H       -0.85153951       2.45192029       8.10128175
H       -3.08894495       1.52559380       5.84931220
H       -4.02554033       4.03204242       4.03806112
H       -4.12651373       4.24997979       1.56537121
H       -1.04254786       0.94200127       3.62762636
H       -0.54597112       6.65090615       5.01107168
H       -2.71071695       8.21043933       6.61722713
H       -2.64115885      10.37649112       7.83204996
H        1.55294270       7.79530587       7.13802033
H        0.04500320       4.72859437       8.52905253
H       -1.06525987       6.04982421       8.74448884
C        4.54364609      -8.43236171       3.45364743
N        3.92222107      -8.60197684       2.14261083
C        2.69657523      -7.81633813       1.98209878
C        2.92590108      -6.33640809       1.87441811
C        2.21208072      -5.44215014       2.58767877
C        2.40626025      -3.99079198       2.59317374
C        3.39682510      -3.41522747       3.40044980
C        3.58072471      -2.03136776       3.40300820
C        2.77756182      -1.22749453       2.59905881
F        2.97043982       0.09966746       2.62278910
C        1.79232039      -1.79232039       1.79232039
C        1.60228804      -3.17494574       1.78761882
C        4.01349120      -5.92586701       0.93720898
O        3.97809519      -4.88984263       0.28349753
C        5.16189686      -6.87268898       0.84687785
C        6.36753053      -6.31983420       0.61817443
C        7.61632676      -7.07554904       0.54970206
C        8.38043614      -7.25416716       1.71032742
C        9.56943859      -7.98288455       1.66027729
C        9.99088695      -8.53094124       0.45277870
F       11.13612091      -9.22781220       0.42992470
C        9.23608991      -8.35769091      -0.70585274
Br       9.80893335      -9.10377904      -2.34640254
C        8.04538260      -7.62981260      -0.66177210
C        4.84804337      -8.32662198       1.04016962
H        5.40588986      -9.10100649       3.55454674
H        3.84136789      -8.70955375       4.24754809
H        4.88464859      -7.40878311       3.64247705
H        2.00869346      -8.05072914       2.80526982
H        2.17740759      -8.15307716       1.07425680
H        1.42425845      -5.78428076       3.25531175
H        4.03156283      -4.03829639       4.02578464
H        4.34594765      -1.57394345       4.02197362
H        0.84510121      -3.61991305       1.14716123
H        6.47432664      -5.24266454       0.49095777
H        8.05571768      -6.82603107       2.65663465
H       10.17027331      -8.12617692       2.55324970
H        7.45532494      -7.48993082      -1.56487226
H        4.39971134      -8.70268654       0.11024582
H        5.75422484      -8.92766456       1.17768350
C       -0.00445707       0.01189536      -1.78238275
H       -0.66409135       0.67374010      -2.43557963
H        0.65740317      -0.63156657      -2.45157240
C       -0.90989263      -0.90692880      -0.91072765
C        0.90977584       0.90977584      -0.90977584
C       -0.00465871       1.77757030       0.00794375
H       -0.66225468       2.44313916      -0.64384735
H        0.64322798       2.43503045       0.67728295
C       -1.78241447       0.00034974      -0.00472694
H       -2.45427497      -0.65498947       0.64260836
H       -2.43311707       0.67328779      -0.65473579
C       -0.91132561       0.90220522       0.91563759
C       -0.01476271      -0.02253852       1.78660255
H       -0.67934791      -0.69751639       2.42135241
H        0.63392994       0.61504881       2.47327442
C        0.01484550      -1.77751727      -0.01636693
H        0.67870853      -2.42144646      -0.68295456
H       -0.62264859      -2.45592969       0.64226336
C        1.78714474       0.01002794       0.00389507
H        2.44202412       0.67113390       0.66197326
H        2.45385902      -0.65136977      -0.64189061
C        0.91606151      -0.90478549       0.90901405
