170
Properties=species:S:1:pos:R:3 pbc="F F F"
C        1.83453284       1.83453284      -1.83453284
C        3.15563644       1.13105245      -2.13489304
H        3.00053271       0.07490823      -2.37475000
C        4.20231551       1.30432086      -1.03247586
N        4.87886306       2.60247924      -1.17739497
C        4.74001894       3.07817059      -2.42840860
S        3.97928201       1.96907859      -3.51232077
N        5.24322758       4.36804947      -2.81447571
C        4.51490027       5.03914467      -3.91348883
C        3.15103765       5.62737167      -3.47535719
N        3.24193343       6.58668864      -2.35677112
C        4.01761442       5.96239944      -1.26172164
C        5.36839362       5.34243607      -1.70734572
C        3.62640294       7.92146408      -2.71459328
N        3.52980765       8.37605075      -3.97808875
C        3.77322783       9.82069971      -4.03023566
C        3.35752327      10.45466297      -2.70236916
H        3.91539405      11.37659581      -2.50978344
C        1.85242148      10.67752215      -2.58594214
Br       1.32793547      12.33370972      -3.50452156
S        3.85793994       9.16312475      -1.53318480
H        1.94437087       2.78444755      -1.29948074
H        1.23303117       1.99508068      -2.73672297
H        4.93549834       0.48857717      -1.10386234
H        3.74688716       1.19886725      -0.04055618
H        4.37675977       4.38123905      -4.77868098
H        5.14871519       5.85064150      -4.29551128
H        2.63136356       6.05118118      -4.34349401
H        2.49657013       4.80718526      -3.15254554
H        4.19637331       6.65250395      -0.42930775
H        3.39374661       5.17134279      -0.82551987
H        6.02949442       6.15376842      -2.04474152
H        5.88834006       4.91440006      -0.84102797
H        4.84069156      10.02175789      -4.20724280
H        3.24820383      10.28702291      -4.87128479
H        1.24740297       9.88150218      -3.02996039
H        1.53689943      10.83818275      -1.55045875
C       -1.83453284      -1.83453284      -1.83453284
C       -0.97247875      -2.68574678      -2.76335641
H       -0.10986654      -3.10412208      -2.23620231
C       -0.54593678      -1.95505232      -4.03812313
N       -1.62998744      -1.99715036      -5.03159948
C       -2.48968777      -2.99621153      -4.76069883
S       -1.98159675      -4.01637616      -3.46270846
N       -3.68140789      -3.20855362      -5.53579124
C       -4.81097541      -3.83878324      -4.81777513
C       -5.53391680      -2.87410979      -3.84573992
N       -6.04895405      -1.64850447      -4.48793468
C       -4.95274168      -1.02577059      -5.26322323
C       -4.20592645      -2.00065911      -6.21158985
C       -7.30087316      -1.78745198      -5.17413516
N       -8.13518287      -2.81606176      -4.93270251
C       -9.42608902      -2.60390730      -5.59416688
C       -9.69401366      -1.10354768      -5.71699406
H      -10.35399512      -0.88519742      -6.56258076
C      -10.21314486      -0.47636676      -4.42637416
Br     -12.14699558      -0.77465934      -4.24451183
S       -8.02385989      -0.48204104      -6.04834856
H       -2.51797393      -1.15474938      -2.35557586
H       -2.40291560      -2.44153806      -1.12038117
H        0.35407617      -2.43852630      -4.44348772
H       -0.24617807      -0.92385411      -3.81627839
H       -4.50588074      -4.74610121      -4.28469785
H       -5.53022501      -4.19924883      -5.56539413
H       -6.31528662      -3.41396757      -3.29678456
H       -4.82987554      -2.56380657      -3.06261882
H       -5.28825771      -0.15380378      -5.83612352
H       -4.23316624      -0.61371775      -4.54372529
H       -4.90480155      -2.32852371      -6.99467909
H       -3.42116416      -1.46354510      -6.75905882
H       -9.41821053      -3.05224450      -6.59923724
H      -10.23945652      -3.10725387      -5.05980115
H       -9.75835167      -0.88248020      -3.51803368
H      -10.11253979       0.61334443      -4.42634557
C       -1.83453284       1.83453284       1.83453284
C       -2.09500599       3.17482381       1.15175214
H       -2.31678146       3.04515689       0.08825259
C       -0.97604498       4.19578123       1.36728603
N       -1.13353881       4.84962400       2.67557447
C       -2.39624022       4.72644521       3.12391270
S       -3.47250481       4.00920750       1.97896905
N       -2.79800531       5.21197606       4.41577139
C       -3.92415334       4.49270652       5.05067392
C       -3.52450320       3.10918034       5.62008297
N       -2.42366590       3.15906902       6.60265827
C       -1.30148746       3.92483959       6.01540845
C       -1.70825089       5.29605566       5.41386886
C       -2.80040677       3.52446899       7.93758455
N       -4.07434103       3.44418269       8.36542342
C       -4.15046323       3.66036254       9.81333743
C       -2.84383633       3.20603078      10.46468829
H       -2.65878581       3.74186722      11.40112027
C       -2.76125153       1.69484918      10.65978506
Br      -3.72265974       1.15653367      12.28697334
S       -1.63964553       3.70818610       9.20641786
H       -1.31644628       1.91515050       2.79670238
H       -2.75130166       1.24808364       1.96544952
H       -1.01686925       4.94601392       0.56505468
H        0.00870288       3.72285063       1.27216282
H       -4.77861403       4.38466947       4.37339631
H       -4.30980892       5.11804513       5.86701392
H       -4.41087373       2.59871346       6.01645156
H       -3.19826543       2.46454480       4.79349069
H       -0.47964054       4.07350329       6.72504118
H       -0.86188624       3.30796746       5.22075558
H       -2.04876158       5.94778481       6.23145797
H       -0.82360932       5.80691342       5.01324534
H       -4.31057717       4.72701128      10.03210381
H       -5.01070686       3.14317947      10.25262521
H       -3.20106204       1.11442971       9.84337380
H       -1.73552238       1.35571220      10.83430634
C        1.83453284      -1.83453284       1.83453284
C        2.72369992      -0.97162056       2.72626146
H        2.16741992      -0.13104722       3.15172379
C        4.00445100      -0.49959583       2.03506541
N        5.02152298      -1.56160041       2.07561389
C        4.74806390      -2.45007493       3.04845930
S        3.41594772      -1.99517362       4.04956002
N        5.54550825      -3.62856473       3.25167977
C        4.83974327      -4.78834173       3.83944878
C        3.90673463      -5.51056711       2.83646476
N        4.58820169      -5.98248169       1.61470981
C        5.35181103      -4.85492137       1.03500310
C        6.26038055      -4.10960574       2.04818912
C        5.29985129      -7.22145088       1.74115813
N        5.05458989      -8.08456533       2.74479192
C        5.75035276      -9.35494168       2.51886876
C        5.91321930      -9.58525749       1.01607861
H        6.77855939     -10.22073457       0.80247934
C        4.64945247     -10.11878315       0.34765016
Br       4.50566021     -12.06263029       0.59787625
S        6.21982771      -7.89411721       0.44030457
H        2.38646985      -2.49012230       1.15170702
H        1.12017887      -2.43279413       2.41186181
H        4.37786604       0.39792847       2.54800028
H        3.79909616      -0.18116318       1.00605124
H        4.27938448      -4.51643412       4.74086120
H        5.59545600      -5.49865401       4.20075795
H        3.36393305      -6.31641800       3.34568770
H        3.11475634      -4.81741748       2.52412711
H        5.95187650      -5.15715184       0.16915667
H        4.62536300      -4.14245503       0.62279126
H        7.05181066      -4.79799871       2.37819499
H        6.80155606      -3.30046120       1.54175082
H        6.74458295      -9.33471947       2.99038985
H        5.22369823     -10.19159953       2.99121378
H        3.72189251      -9.69414695       0.74282609
H        4.67172523      -9.99303393      -0.73921824
C       -0.00445707       0.01189536      -1.78238275
H       -0.66409135       0.67374010      -2.43557963
H        0.65740317      -0.63156657      -2.45157240
C       -0.90989263      -0.90692880      -0.91072765
C        0.90977584       0.90977584      -0.90977584
C       -0.00465871       1.77757030       0.00794375
H       -0.66225468       2.44313916      -0.64384735
H        0.64322798       2.43503045       0.67728295
C       -1.78241447       0.00034974      -0.00472694
H       -2.45427497      -0.65498947       0.64260836
H       -2.43311707       0.67328779      -0.65473579
C       -0.91132561       0.90220522       0.91563759
C       -0.01476271      -0.02253852       1.78660255
H       -0.67934791      -0.69751639       2.42135241
H        0.63392994       0.61504881       2.47327442
C        0.01484550      -1.77751727      -0.01636693
H        0.67870853      -2.42144646      -0.68295456
H       -0.62264859      -2.45592969       0.64226336
C        1.78714474       0.01002794       0.00389507
H        2.44202412       0.67113390       0.66197326
H        2.45385902      -0.65136977      -0.64189061
C        0.91606151      -0.90478549       0.90901405
