149
Properties=species:S:1:pos:R:3 pbc="F F F"
C        0.00000000       0.00000000       0.00000000
C        6.98602369      -2.83074912      -4.23597651
C        6.24554610      -1.52602532      -3.95833888
N        7.05881794      -0.54584682      -3.22081514
C        6.42612678       0.77896935      -3.17067518
C        5.18694123       0.82356193      -2.31726175
C        4.05110756       1.38854136      -2.76816736
C        2.79181504       1.41123691      -2.10092079
S        1.77105687       2.79381412      -2.30000374
C        0.53667745       2.12753204      -1.32439919
C        0.87887012       0.87887012      -0.87887012
C        2.15467033       0.45508545      -1.32501512
C        5.35592178       0.21350515      -0.96498063
O        4.81830601       0.66419115       0.03978440
C        6.25827711      -0.97722992      -0.90249000
C        5.89682423      -1.92095168      -0.01277091
C        6.58840547      -3.14834706       0.19582082
S        5.66231684      -4.58790859       0.43968966
C        7.05738591      -5.55785200       0.60751086
C        8.19723793      -4.80653491       0.50244528
Br       9.94937747      -5.48850812       0.63530356
C        7.94293513      -3.42848702       0.28770928
C        7.41229814      -0.96189159      -1.85829610
H        6.38609117      -3.46535925      -4.89787862
H        7.17041891      -3.40197993      -3.32040602
H        7.94586666      -2.64458139      -4.73019233
H        5.30413699      -1.75221714      -3.44456531
H        5.97842080      -1.09973562      -4.93334817
H        6.21794605       1.11506306      -4.19504696
H        7.14891253       1.50700654      -2.77759931
H        4.07073030       1.86163795      -3.74947466
H       -0.37202411       2.68146144      -1.13556304
H        2.59289350      -0.50540463      -1.08430360
H        4.98801433      -1.77425342       0.57350215
H        6.96809296      -6.62092102       0.78104967
H        8.71605495      -2.67318686       0.20616653
H        8.16370631      -0.26135289      -1.46732522
H        7.93498385      -1.91824241      -1.90238051
C        0.92549016      -0.75300260      -8.56373864
C       -0.01195903      -1.21405738      -7.45184324
N       -1.39015113      -0.72523478      -7.61840036
C       -2.32584175      -1.36556101      -6.68436857
C       -2.11423419      -0.96452969      -5.24900103
C       -2.04998916      -1.88719271      -4.27063440
C       -1.76112330      -1.64716788      -2.89568156
S       -2.52999956      -2.63412154      -1.70075363
C       -1.72661818      -1.84826006      -0.41373043
C       -0.87887012      -0.87887012      -0.87887012
C       -0.88019319      -0.76393785      -2.29063986
C       -2.00643086       0.50960308      -5.03757978
O       -2.46575386       1.07547466      -4.05243355
C       -1.32389918       1.26982619      -6.12946420
C       -0.59156302       2.32282335      -5.71990379
C        0.16570428       3.16925782      -6.57919969
S        1.72816502       3.69328385      -6.05616746
C        1.99652975       4.59341705      -7.48196985
C        0.92034054       4.51637846      -8.32497674
Br       0.80575808       5.37015674     -10.00148062
C       -0.13773019       3.72388163      -7.81289027
C       -1.52769711       0.73234739      -7.51335294
H        1.89594647      -1.25178490      -8.46277211
H        1.11074843       0.32530457      -8.52489800
H        0.52211045      -1.00224040      -9.55134766
H        0.41427559      -0.92708481      -6.48367594
H       -0.02135227      -2.31080151      -7.47987957
H       -2.26530986      -2.45493389      -6.80781231
H       -3.35388774      -1.10687325      -6.97275740
H       -2.21020621      -2.93039541      -4.54124130
H       -1.91312374      -2.14157915       0.60970251
H       -0.26851838      -0.06101804      -2.84225606
H       -0.52617249       2.53778851      -4.65187477
H        2.92140364       5.13481296      -7.62233887
H       -1.08146627       3.56722659      -8.32246187
H       -2.54204525       1.00756127      -7.83519467
H       -0.87571541       1.20539990      -8.24880645
C       -7.80093934      -2.32517578       2.91548752
C       -6.87534079      -1.11234404       2.91486291
N       -7.45211834       0.05422510       2.22744283
C       -6.66169283       1.27405598       2.44002251
C       -5.31958013       1.24934256       1.75884222
C       -4.19728867       1.59121545       2.41931215
C       -2.86403434       1.51945960       1.92047880
S       -1.71994138       2.71155125       2.43338210
C       -0.45228734       2.00385151       1.53246982
C       -0.87887012       0.87887012       0.87887012
C       -2.24648737       0.58576614       1.10251740
C       -5.37163786       0.83844530       0.32432440
O       -4.64829354       1.32904161      -0.53462239
C       -6.39499834      -0.19829733      -0.01316383
C       -6.03099276      -1.06746383      -0.97488548
C       -6.83134099      -2.15177408      -1.43532932
S       -6.06299927      -3.66571493      -1.76256576
C       -7.52891751      -4.40396585      -2.23292860
C       -8.57198103      -3.51962445      -2.16409885
Br     -10.35851392      -3.92939482      -2.60355331
C       -8.18381093      -2.22707906      -1.72999304
C       -7.66037558      -0.13905645       0.78738352
H       -7.38109181      -3.11319671       3.55071544
H       -7.92426719      -2.74907286       1.91365067
H       -8.79032093      -2.06878499       3.30994167
H       -5.90623345      -1.40311005       2.49336177
H       -6.69668895      -0.84966343       3.96500783
H       -6.55885325       1.45029164       3.51891117
H       -7.22832832       2.13819683       2.06699323
H       -4.29558623       1.93908601       3.44717066
H        0.53461084       2.44460192       1.53500929
H       -2.76081001      -0.26764705       0.67862952
H       -5.03830420      -0.97840230      -1.41964314
H       -7.54673639      -5.43989704      -2.54071707
H       -8.86272576      -1.38706121      -1.63896300
H       -8.25878770       0.70179386       0.40909709
H       -8.29688344      -1.01139139       0.63362990
C       -1.33412481      -1.27870919       8.44666670
C       -0.31479453      -1.62656788       7.36608630
N        1.02314593      -1.07552944       7.63511090
C        2.04132991      -1.61216736       6.72227405
C        1.88393334      -1.14325900       5.30057257
C        1.92328956      -2.01186756       4.27265916
C        1.69466931      -1.71095741       2.89834603
S        2.57973569      -2.58743604       1.69770299
C        1.80294556      -1.77447449       0.41118863
C        0.87887012      -0.87887012       0.87887012
C        0.79900080      -0.84316348       2.29260663
C        1.70520412       0.33261015       5.16181359
O        2.18368474       0.97621954       4.23524756
C        0.92436262       0.99336691       6.25254147
C        0.15700055       2.02736010       5.85900301
C       -0.69085920       2.78312218       6.71821897
S       -2.25028801       3.25210193       6.13710853
C       -2.64370012       4.05561094       7.59133412
C       -1.61104092       3.98864538       8.48794404
Br      -1.63332690       4.75219560      10.21108830
C       -0.48467435       3.28317194       7.99458511
C        1.08432977       0.39088180       7.61525468
H       -2.26845697      -1.82175415       8.26531336
H       -1.57708112      -0.21124324       8.45468287
H       -0.97030368      -1.56107832       9.44070296
H       -0.70454257      -1.30887365       6.39215408
H       -0.24557761      -2.72112478       7.33648618
H        2.03536483      -2.70841355       6.78427769
H        3.03658315      -1.31593581       7.08099942
H        2.12704251      -3.05862108       4.49617932
H        2.05949748      -1.99980956      -0.61430667
H        0.12062053      -0.20557264       2.84559931
H        0.13634004       2.29795429       4.80187301
H       -3.60353804       4.53857141       7.70823172
H        0.43803496       3.14845993       8.54712653
H        2.06323010       0.70099412       8.00744267
H        0.36888267       0.78687242       8.33711171
