178
Properties=species:S:1:pos:R:3 pbc="F F F"
C        7.89592771      -1.92084509      -5.14588053
C        7.15545012      -0.61612130      -4.86824290
N        7.96872196       0.36405721      -4.13071917
C        7.33603081       1.68887338      -4.08057921
C        6.09684525       1.73346596      -3.22716578
C        4.96101158       2.29844538      -3.67807138
C        3.70171906       2.32114094      -3.01082481
S        2.68096089       3.70371814      -3.20990776
C        1.44658147       3.03743606      -2.23430321
C        1.78877415       1.78877415      -1.78877415
C        3.06457435       1.36498948      -2.23491915
C        6.26582580       1.12340917      -1.87488466
O        5.72821004       1.57409517      -0.87011962
C        7.16818114      -0.06732590      -1.81239402
C        6.80672825      -1.01104766      -0.92267494
C        7.49830949      -2.23844304      -0.71408321
S        6.57222086      -3.67800457      -0.47021436
C        7.96728993      -4.64794797      -0.30239316
C        9.10714196      -3.89663089      -0.40745874
C        8.85283915      -2.51858300      -0.62219474
C        8.32220216      -0.05198756      -2.76820012
H        7.29599520      -2.55545523      -5.80778265
H        8.08032294      -2.49207591      -4.23031004
H        8.85577068      -1.73467737      -5.64009636
H        6.21404101      -0.84231311      -4.35446933
H        6.88832482      -0.18983160      -5.84325219
H        7.12785007       2.02496708      -5.10495098
H        8.05881656       2.41691057      -3.68750333
H        4.98063432       2.77154198      -4.65937868
H        0.53787991       3.59136547      -2.04546707
H        3.50279753       0.40449940      -1.99420762
H        5.89791835      -0.86434940      -0.33640187
H        7.87799698      -5.71101699      -0.12885435
H        9.62595897      -1.76328283      -0.70373749
H        9.07361033       0.64855114      -2.37722925
H        8.84488788      -1.00833838      -2.81228454
C       10.44573935      -4.41764393      -0.30595784
C       11.56681466      -4.85399235      -0.22095084
Br      13.37949863      -5.55953085      -0.08350171
C       -0.46312065      -1.11548307      -9.54235943
C       -1.30368657      -1.69515731      -8.40872784
N       -2.71508343      -1.28196348      -8.46645143
C       -3.55443327      -2.03002940      -7.52102072
C       -3.27954691      -1.69950173      -6.07842834
C       -3.10362974      -2.67091661      -5.16298199
C       -2.74622113      -2.49271147      -3.79475221
S       -3.38375561      -3.59099421      -2.61983698
C       -2.55009307      -2.83267612      -1.33555155
C       -1.78877415      -1.78877415      -1.78877415
C       -1.88212544      -1.59374293      -3.18861461
C       -3.24345428      -0.23602084      -5.78464451
O       -3.67383815       0.24385188      -4.74243856
C       -2.67278561       0.62520870      -6.86567235
C       -1.97829323       1.69551657      -6.43557887
C       -1.32398701       2.63390813      -7.28387079
S        0.23481273       3.22086099      -6.82010437
C        0.36454870       4.21549907      -8.20178290
C       -0.75455003       4.12168685      -8.98510664
C       -1.73271629       3.23865149      -8.46238610
C       -2.92898492       0.15624134      -8.26567115
H        0.53855166      -1.55954405      -9.52733022
H       -0.33769826      -0.03191573      -9.44894308
H       -0.91066918      -1.33191013     -10.51861036
H       -0.83669317      -1.43863297      -7.45087109
H       -1.25214734      -2.78706692      -8.50253116
H       -3.43940837      -3.10491439      -7.71344538
H       -4.61113918      -1.81801983      -7.73407145
H       -3.22013320      -3.70475694      -5.48666484
H       -2.65724870      -3.19468277      -0.32278097
H       -1.34608778      -0.82474400      -3.73067278
H       -1.86073687       1.85273689      -5.36197084
H        1.24681666       4.81902408      -8.36167508
H       -2.69508980       3.05448700      -8.92581083
H       -3.97500905       0.38745838      -8.51184005
H       -2.35079042       0.70910297      -9.00714658
C       -0.95655812       4.83949685     -10.21699200
C       -1.12573989       5.44066273     -11.24869598
Br      -1.39929252       6.41269710     -12.91687407
C       -7.97043010      -1.89061875       5.04115180
C       -7.21325282      -0.59102665       4.78534556
N       -8.00816401       0.40555089       4.04978344
C       -7.36098248       1.72397794       4.02052297
C       -6.11233363       1.76434099       3.18080237
C       -4.97547205       2.31232925       3.64972705
C       -3.70894233       2.32861170       2.99613078
S       -2.67579295       3.69800242       3.22079143
C       -1.43816811       3.02891639       2.25123625
C       -1.78877415       1.78877415       1.78877415
C       -3.07369012       1.37396542       2.21682744
C       -6.27328406       1.17047775       1.82035783
O       -5.72020681       1.62599739       0.82622063
C       -7.18747457      -0.00980557       1.73558026
C       -6.82653355      -0.94786872       0.83969070
C       -7.52879867      -2.16551675       0.61066774
S       -6.61544588      -3.61224262       0.36122741
C       -8.01882979      -4.56537210       0.16827744
C       -9.15172285      -3.80305593       0.26930289
C       -8.88515744      -2.43015859       0.50145204
C       -8.35142968       0.00776023       2.67922482
H       -7.38436645      -2.53858374       5.70253991
H       -8.15105526      -2.45011885       4.11762067
H       -8.93348156      -1.69943388       5.52714199
H       -6.26884759      -0.82182678       4.27917643
H       -6.95207742      -0.17796573       5.76763373
H       -7.16022804       2.04696121       5.05057889
H       -8.07177282       2.46382793       3.62762970
H       -5.00058406       2.77519332       4.63577761
H       -0.52168461       3.57505902       2.07796882
H       -3.51945652       0.42082154       1.96122649
H       -5.91000038      -0.80470467       0.26467512
H       -7.93894456      -5.62743891      -0.01567131
H       -9.65106598      -1.66753482       0.58288247
H       -9.09115284       0.72039882       2.28783906
H       -8.88465257      -0.94335617       2.70753764
C      -10.49459837      -4.30861227       0.14806716
C      -11.61925663      -4.73201571       0.04653223
Br     -13.43773391      -5.41662326      -0.11764116
C       -0.94520983      -2.96504804       9.10112495
C        0.17702308      -3.14688291       8.08366573
N        1.44199950      -2.52078059       8.50071826
C        2.56582156      -2.90391757       7.63574426
C        2.47789548      -2.33448390       6.24509761
C        2.66438128      -3.11156442       5.16158265
C        2.51572694      -2.71827760       3.79968027
S        3.55633556      -3.42583535       2.61241589
C        2.81479783      -2.57179945       1.33172346
C        1.78877415      -1.78877415       1.78877415
C        1.60059845      -1.87380201       3.19008252
C        2.19108461      -0.86977327       6.20326175
O        2.68390968      -0.11918580       5.36932934
C        1.27977476      -0.35990808       7.27356641
C        0.46280894       0.64217182       6.89771840
C       -0.50546450       1.26019786       7.73961203
S       -2.04983545       1.65657764       7.07084375
C       -2.61487579       2.30789661       8.54450752
C       -1.65026077       2.24605652       9.51428710
C       -0.43666109       1.66923483       9.06234682
C        1.38549615      -1.05713140       8.59578717
H       -1.81625733      -3.56007455       8.80450539
H       -1.27376366      -1.92294904       9.16937170
H       -0.63519617      -3.29897126      10.09741459
H       -0.16312701      -2.78142116       7.10790308
H        0.33670997      -4.22717344       7.97786201
H        2.64406044      -3.99894013       7.61476757
H        3.50412696      -2.56400366       8.09509983
H        2.93494901      -4.15477201       5.32183397
H        3.16485733      -2.69346035       0.31639476
H        0.83328207      -1.33572154       3.73250094
H        0.49954078       0.99520927       5.86563931
H       -3.61673653       2.70653739       8.61910826
H        0.44993761       1.55970038       9.67617640
H        2.30391730      -0.70735742       9.08811600
H        0.58826305      -0.77563307       9.28493791
C       -1.81305503       2.71790385      10.86501214
C       -1.94939522       3.11307599      11.99624436
Br      -2.16984578       3.75203591      13.82535118
C       -0.00445707       0.01189536      -1.78238275
H       -0.66409135       0.67374010      -2.43557963
H        0.65740317      -0.63156657      -2.45157240
C       -0.90989263      -0.90692880      -0.91072765
C        0.90977584       0.90977584      -0.90977584
C       -0.00465871       1.77757030       0.00794375
H       -0.66225468       2.44313916      -0.64384735
H        0.64322798       2.43503045       0.67728295
C       -1.78241447       0.00034974      -0.00472694
H       -2.45427497      -0.65498947       0.64260836
H       -2.43311707       0.67328779      -0.65473579
C       -0.91132561       0.90220522       0.91563759
C       -0.01476271      -0.02253852       1.78660255
H       -0.67934791      -0.69751639       2.42135241
H        0.63392994       0.61504881       2.47327442
C        0.01484550      -1.77751727      -0.01636693
H        0.67870853      -2.42144646      -0.68295456
H       -0.62264859      -2.45592969       0.64226336
C        1.78714474       0.01002794       0.00389507
H        2.44202412       0.67113390       0.66197326
H        2.45385902      -0.65136977      -0.64189061
C        0.91606151      -0.90478549       0.90901405
