198
Properties=species:S:1:pos:R:3 pbc="F F F"
C        1.78881977       1.78881977      -1.78881977
C        1.35539209       2.90416677      -2.45663133
S        2.62840253       3.63047714      -3.33476838
C        3.76397009       2.42117468      -2.84516029
C        3.16446531       1.51530572      -1.98581671
C        5.10053790       2.52191231      -3.32420883
C        5.84190857       1.48232283      -3.75454732
C        5.49169877       0.02420047      -3.83679538
C        5.83803270      -0.61454949      -5.20180509
C        7.30188336      -0.28034734      -5.56851651
C        7.59824725       1.19753807      -5.51308790
C        8.22926017       1.83404330      -6.51950809
C        8.55247705       3.22317840      -6.57046391
S       10.01105602       3.70306891      -7.37083578
C        9.75880310       5.35575412      -7.02319986
C        8.58099699       5.54543350      -6.35276210
Br       7.92328014       7.21946003      -5.78544251
C        7.87345026       4.34214669      -6.11155368
C        7.19588757       1.86085968      -4.24182954
O        7.91795440       2.63478566      -3.62595162
C        5.51621162      -2.16004176      -5.26159594
C        5.66900185      -2.67803548      -6.70848527
C        6.44055827      -2.99718900      -4.35469908
C        4.05706805      -2.43347844      -4.83278274
H        0.36442314       3.33607286      -2.47147584
H        3.69621098       0.69223675      -1.52422515
H        5.52096714       3.52631035      -3.37267855
H        4.42434195      -0.11536303      -3.65535541
H        6.02486756      -0.49111210      -3.02995230
H        5.19648729      -0.12505526      -5.95093829
H        7.99128938      -0.77842255      -4.87548945
H        7.52813425      -0.66398268      -6.56916354
H        8.54377583       1.24320067      -7.37905704
H       10.48282715       6.09852549      -7.32974055
H        6.92058046       4.29442202      -5.60150485
H        5.05435663      -2.09478405      -7.40290887
H        5.35339381      -3.72520051      -6.78811483
H        6.70668663      -2.63469422      -7.05283208
H        6.38281294      -2.67984612      -3.30912072
H        7.48671880      -2.93626908      -4.67076206
H        6.16176087      -4.05720885      -4.38528817
H        3.90493979      -2.24991285      -3.76382217
H        3.78051832      -3.47933717      -5.01191787
H        3.35594382      -1.80507159      -5.39267356
C       -1.78881977      -1.78881977      -1.78881977
C       -2.07775679      -1.53445420      -3.10397919
S       -3.08997996      -2.74551458      -3.75815351
C       -3.17161248      -3.60136922      -2.25732336
C       -2.38958933      -2.97503019      -1.30096822
C       -3.95178139      -4.79072149      -2.20415616
C       -4.76377605      -5.13090078      -1.18410190
C       -5.04805328      -4.40315711       0.09851577
C       -6.55683541      -4.28417524       0.41572234
C       -7.21651060      -5.67750414       0.30396220
C       -6.93944423      -6.35412162      -1.01530736
C       -7.92351421      -6.90982606      -1.74947128
C       -7.77196712      -7.56686976      -3.00728249
S       -8.80962360      -8.90459496      -3.37074215
C       -8.07796839      -9.16896821      -4.89082047
C       -7.09929625      -8.24431430      -5.13558205
Br      -6.05020369      -8.17662838      -6.70135062
C       -6.93305923      -7.31206514      -4.08202626
C       -5.49946834      -6.40749324      -1.39161522
O       -4.94864350      -7.41660002      -1.81344816
C       -6.84519422      -3.56500508       1.79243350
C       -8.35603204      -3.27819891       1.93477931
C       -6.40193473      -4.40400623       3.00787262
C       -6.11573535      -2.20466996       1.86403297
H       -1.74485939      -0.70919880      -3.71791366
H       -2.26112112      -3.35627347      -0.29527829
H       -3.90190709      -5.43958484      -3.07846411
H       -4.62685694      -3.39682300       0.05934561
H       -4.53131481      -4.93663486       0.90424192
H       -6.99612224      -3.65350850      -0.37273958
H       -6.84440160      -6.33961647       1.09566179
H       -8.29804392      -5.58629009       0.45101890
H       -8.93732004      -6.87665505      -1.35205846
H       -8.40428336      -9.98322782      -5.52358200
H       -6.21293875      -6.50488647      -4.09868210
H       -8.73155682      -2.70856278       1.07763816
H       -8.56285975      -2.69088240       2.83743402
H       -8.94285021      -4.19812600       2.01615172
H       -5.33553695      -4.64608245       2.96953186
H       -6.96068679      -5.34229915       3.08177416
H       -6.57472917      -3.85808920       3.94297819
H       -5.02999373      -2.32756843       1.93871305
H       -6.42636800      -1.63420291       2.74747190
H       -6.33253548      -1.59273049       0.98172018
C       -1.78881977       1.78881977       1.78881977
C       -1.44140829       3.03550521       2.23927669
S       -2.68483637       3.71455822       3.19425345
C       -3.68482796       2.31254767       3.03292943
C       -3.07363951       1.37457512       2.21737311
C       -4.95006852       2.31157638       3.68501414
C       -5.47127249       1.26023173       4.34727451
C       -4.90464893      -0.11394673       4.56199242
C       -4.97806817      -0.58560485       6.03282499
C       -6.41648652      -0.39004842       6.56361442
C       -6.92975683       1.01426495       6.36485143
C       -7.51392037       1.70539712       7.36349405
C       -8.02709504       3.03473541       7.28428891
S       -9.42653688       3.43712481       8.22129902
C       -9.46411127       5.03997573       7.63367008
C       -8.42127074       5.27783250       6.78008935
Br      -8.09202411       6.92105976       5.91509881
C       -7.58225831       4.15188303       6.59300930
C       -6.79305104       1.53081058       4.97471517
O       -7.69250248       2.10869983       4.37748937
C       -4.42941074      -2.05238275       6.24073781
C       -4.32014877      -2.36905865       7.74836152
C       -5.32938768      -3.12328354       5.59196421
C       -3.01235221      -2.19797107       5.64199121
H       -0.53021297       3.58721220       2.05454668
H       -3.53395047       0.43224050       1.94648192
H       -5.50284690       3.25073250       3.66637665
H       -3.86010626      -0.14185146       4.24607952
H       -5.45504635      -0.80484421       3.91350562
H       -4.32489921       0.08530387       6.61216724
H       -7.10824089      -1.06727148       6.04738687
H       -6.45552889      -0.64928187       7.62706810
H       -7.62726352       1.21109043       8.32767959
H      -10.24385926       5.72152871       7.94570521
H       -6.70514252       4.15164546       5.95971935
H       -3.71398571      -1.61755156       8.26604730
H       -3.84772009      -3.34480443       7.91339247
H       -5.30087320      -2.40804496       8.23199625
H       -5.45171107      -2.95703100       4.51740746
H       -6.32458083      -3.15022205       6.04685300
H       -4.89742592      -4.12346362       5.71587789
H       -3.02553734      -2.15440165       4.54771342
H       -2.56580546      -3.16288593       5.91017949
H       -2.34500052      -1.41079703       6.00934230
C        1.78881977      -1.78881977       1.78881977
C        3.11590734      -2.04140162       1.55888122
S        3.76570674      -3.06652732       2.76141400
C        2.24794353      -3.20272564       3.57963588
C        1.28810563      -2.42836912       2.94911299
C        2.18582544      -4.01166393       4.74916967
C        1.17760205      -4.85465629       5.04652039
C       -0.08091632      -5.15113521       4.28247574
C       -0.35973619      -6.66359177       4.12143272
C       -0.26453629      -7.35310894       5.50147988
C        1.03195841      -7.06179255       6.21512226
C        1.77609956      -8.04153066       6.76518132
C        3.01457065      -7.87661745       7.45493126
S        3.37150040      -8.93682091       8.77663940
C        4.86747663      -8.17685305       9.09342739
C        5.11033569      -7.17134158       8.19751532
Br       6.65214181      -6.08524928       8.19079159
C        4.07485951      -7.00747759       7.24481353
C        1.37297316      -5.61520419       6.31039944
O        1.75843924      -5.07871589       7.34153655
C       -1.71239817      -6.96651358       3.36365040
C       -1.81254753      -8.47306045       3.03893873
C       -2.95688110      -6.57115018       4.18379928
C       -1.76985826      -6.20710363       2.01912698
H        3.74064237      -1.67517118       0.75615829
H        0.27117879      -2.33204269       3.30945140
H        3.04357955      -3.95698755       5.41938894
H       -0.02855090      -4.70560100       3.28728422
H       -0.91061604      -4.66573409       4.80858971
H        0.45312025      -7.06969423       3.49955584
H       -1.07977134      -7.01496188       6.15316574
H       -0.38398372      -8.43529131       5.38200753
H        1.40350504      -9.06313931       6.69938920
H        5.48886147      -8.50760191       9.91462981
H        4.09311729      -6.26838160       6.45500843
H       -0.93395071      -8.81529259       2.48113957
H       -2.69635617      -8.68670406       2.42596025
H       -1.90121223      -9.08306459       3.94297214
H       -2.94920112      -5.51014080       4.45114786
H       -3.03916097      -7.15336363       5.10700912
H       -3.87487459      -6.75249808       3.61221670
H       -1.87285468      -5.12655497       2.16514882
H       -2.63240749      -6.52445079       1.42105571
H       -0.86886411      -6.38912375       1.42328616
C       -0.00445707       0.01189536      -1.78238275
H       -0.66409135       0.67374010      -2.43557963
H        0.65740317      -0.63156657      -2.45157240
C       -0.90989263      -0.90692880      -0.91072765
C        0.90977584       0.90977584      -0.90977584
C       -0.00465871       1.77757030       0.00794375
H       -0.66225468       2.44313916      -0.64384735
H        0.64322798       2.43503045       0.67728295
C       -1.78241447       0.00034974      -0.00472694
H       -2.45427497      -0.65498947       0.64260836
H       -2.43311707       0.67328779      -0.65473579
C       -0.91132561       0.90220522       0.91563759
C       -0.01476271      -0.02253852       1.78660255
H       -0.67934791      -0.69751639       2.42135241
H        0.63392994       0.61504881       2.47327442
C        0.01484550      -1.77751727      -0.01636693
H        0.67870853      -2.42144646      -0.68295456
H       -0.62264859      -2.45592969       0.64226336
C        1.78714474       0.01002794       0.00389507
H        2.44202412       0.67113390       0.66197326
H        2.45385902      -0.65136977      -0.64189061
C        0.91606151      -0.90478549       0.90901405
