177
Properties=species:S:1:pos:R:3 pbc="F F F"
C        0.00000000       0.00000000       0.00000000
C        0.87891575       0.87891575      -0.87891575
C        0.44548806       1.99426274      -1.54672730
S        1.71849851       2.72057311      -2.42486436
C        2.85406606       1.51127065      -1.93525627
C        2.25456128       0.60540170      -1.07591269
C        4.19063388       1.61200828      -2.41430481
C        4.93200455       0.57241881      -2.84464330
C        4.58179474      -0.88570355      -2.92689136
C        4.92812867      -1.52445351      -4.29190107
C        6.39197934      -1.19025137      -4.65861249
C        6.68834322       0.28763404      -4.60318387
C        7.31935614       0.92413927      -5.60960406
C        7.64257303       2.31327437      -5.66055989
S        9.10115199       2.79316489      -6.46093176
C        8.84889907       4.44585009      -6.11329584
C        7.67109297       4.63552948      -5.44285807
Br       7.01337612       6.30955601      -4.87553848
C        6.96354624       3.43224267      -5.20164966
C        6.28598354       0.95095566      -3.33192552
O        7.00805038       1.72488163      -2.71604760
C        4.60630760      -3.06994579      -4.35169192
C        4.75909783      -3.58793950      -5.79858124
C        5.53065425      -3.90709303      -3.44479505
C        3.14716402      -3.34338246      -3.92287872
H       -0.54548088       2.42616884      -1.56157182
H        2.78630695      -0.21766727      -0.61432113
H        4.61106312       2.61640633      -2.46277452
H        3.51443792      -1.02526706      -2.74545139
H        5.11496354      -1.40101612      -2.12004827
H        4.28658327      -1.03495929      -5.04103427
H        7.08138535      -1.68832657      -3.96558543
H        6.61823023      -1.57388670      -5.65925951
H        7.63387181       0.33329665      -6.46915302
H        9.57292312       5.18862146      -6.41983652
H        6.01067643       3.38451799      -4.69160083
H        4.14445260      -3.00468807      -6.49300485
H        4.44348979      -4.63510453      -5.87821080
H        5.79678260      -3.54459824      -6.14292806
H        5.47290891      -3.58975015      -2.39921669
H        6.57681478      -3.84617311      -3.76085803
H        5.25185685      -4.96711287      -3.47538414
H        2.99503577      -3.15981688      -2.85391815
H        2.87061429      -4.38924120      -4.10201385
H        2.44603980      -2.71497562      -4.48276954
C       -0.87891575      -0.87891575      -0.87891575
C       -0.61881792      -1.17667841      -2.19098178
S       -1.82681018      -2.19362540      -2.84350040
C       -2.72622275      -2.20819410      -1.36617613
C       -2.06623492      -1.47797822      -0.39166253
C       -3.93770868      -2.95428499      -1.32495330
C       -5.07558432      -2.53810907      -0.73537327
C       -5.36243773      -1.26026522      -0.00027960
C       -6.67073332      -0.57154425      -0.45329867
C       -7.82484575      -1.59952829      -0.43596642
C       -7.51005153      -2.84888573      -1.22022389
C       -8.37338457      -3.35931634      -2.12039857
C       -8.17337648      -4.52732623      -2.91570458
S       -9.54592642      -5.51136492      -3.29795729
C       -8.60258163      -6.63916887      -4.16629451
C       -7.28781696      -6.26112947      -4.20053410
Br      -5.91336758      -7.22399100      -5.06111203
C       -7.03549264      -5.04804839      -3.51389753
C       -6.21242313      -3.48897260      -0.86746899
O       -6.08282070      -4.69135768      -0.67480122
C       -6.99264385       0.74299342       0.36159669
C       -8.17496765       1.49409678      -0.28886870
C       -7.35888690       0.45837245       1.83215818
C       -5.78298315       1.70443767       0.35188521
H        0.21659483      -0.85941973      -2.79943487
H       -2.42763969      -1.38005431       0.62473319
H       -3.93252634      -3.91141001      -1.84630762
H       -4.54000708      -0.55592250      -0.13869267
H       -5.40747707      -1.49554936       1.06903074
H       -6.52154512      -0.26952422      -1.50158891
H       -8.04575107      -1.90672223       0.59382909
H       -8.73630073      -1.13730552      -0.82999679
H       -9.32801771      -2.85225273      -2.25605104
H       -9.06000585      -7.51488427      -4.60649099
H       -6.05869978      -4.58907385      -3.43902162
H       -7.97961257       1.69483259      -1.34798940
H       -8.34842407       2.45859062       0.20323739
H       -9.10990291       0.93038589      -0.21559540
H       -6.56066676      -0.07691867       2.35520997
H       -8.27635283      -0.13244581       1.91729894
H       -7.53207579       1.39274709       2.37920059
H       -4.94772477       1.31495623       0.94363150
H       -6.04571584       2.67663829       0.78569061
H       -5.42753325       1.88254087      -0.66884134
C       -0.87891575       0.87891575       0.87891575
C       -0.99703121       2.23817528       0.75127163
S       -2.07736807       2.87476504       1.91180287
C       -2.36408702       1.32098879       2.61551717
C       -1.66924626       0.34212624       1.92450318
C       -3.25360699       1.23959101       3.72374897
C       -3.04767247       0.48233019       4.81906399
C       -1.90301678      -0.43138735       5.15135312
C       -1.33514921      -0.21247614       6.57290316
C       -2.49303794      -0.22933718       7.59663970
C       -3.60077768       0.73242424       7.24595922
C       -4.11199544       1.58866194       8.15244211
C       -5.15241684       2.53874888       7.92524157
S       -6.25012110       2.88670632       9.21842122
C       -7.15140705       3.98521678       8.27142117
C       -6.61296623       4.11632614       7.02018815
Br      -7.29935210       5.23405534       5.66506318
C       -5.46052669       3.31737310       6.81953877
C       -4.11101690       0.60525527       5.85259255
O       -5.30211611       0.57738481       5.56947869
C       -0.16734751      -1.21325797       6.93396418
C        0.49915993      -0.79348995       8.26238945
C       -0.65407092      -2.66878590       7.08307125
C        0.93091273      -1.18964592       5.84721893
H       -0.51470618       2.89068669       0.03686690
H       -1.72835647      -0.71198983       2.16659418
H       -4.13997786       1.87219345       3.67807266
H       -1.09192366      -0.29155958       4.43425817
H       -2.25763843      -1.46206797       5.03842523
H       -0.90418467       0.80065402       6.58781956
H       -2.93590869      -1.23143582       7.65417134
H       -2.10618901       0.00269068       8.59472336
H       -3.71450452       1.55559621       9.16622075
H       -8.02329631       4.47713026       8.68095455
H       -4.89579186       3.29391384       5.89708956
H        0.83709031       0.24784018       8.22201951
H        1.37528886      -1.41656342       8.47844835
H       -0.17994040      -0.89868637       9.11385838
H       -1.14104494      -3.03147101       6.17280153
H       -1.35905701      -2.78043992       7.91288261
H        0.18637170      -3.34230936       7.28880918
H        0.58479934      -1.63398051       4.90791689
H        1.81003483      -1.76593209       6.15935387
H        1.26202223      -0.16588217       5.64173812
C        0.87891575      -0.87891575       0.87891575
C        2.17546991      -0.59296277       1.21804543
S        2.83331247      -1.81025096       2.22037255
C        1.38051178      -2.74764850       2.17243270
C        0.40803110      -2.09393204       1.43391253
C        1.35218926      -3.97918124       2.88557648
C        0.80399796      -5.12047428       2.42459442
C        0.11008342      -5.39221184       1.12068730
C        0.61535054      -6.66959933       0.41062636
C        0.60208637      -7.85066597       1.40758812
C        1.34512582      -7.54897852       2.68505680
C        2.25440428      -8.40198681       3.19670839
C        3.01363730      -8.21256050       4.39020949
S        3.40662105      -9.60041075       5.34821684
C        4.22013503      -8.66520180       6.52270818
C        4.22921544      -7.34041597       6.17984911
Br       5.02779385      -5.97021930       7.20045745
C        3.56773091      -7.07381279       4.95589487
C        0.94159531      -6.27836566       3.34890375
O        0.71451418      -6.18576702       4.54869840
C       -0.15643063      -6.97745982      -0.93297546
C        0.54441552      -8.12219783      -1.69687378
C       -1.62361797      -7.38905096      -0.69707672
C       -0.15397842      -5.74284728      -1.86220859
H        2.76952648       0.26604069       0.93877398
H       -0.59553525      -2.47878067       1.29971539
H        1.84828803      -3.98593322       3.85602272
H        0.24478119      -4.54806142       0.44177964
H       -0.96338225      -5.47113005       1.32624788
H        1.66677114      -6.48537537       0.14051173
H       -0.42908153      -8.10621671       1.68150903
H        1.03200762      -8.73902652       0.93256890
H        2.42843186      -9.33898892       2.66890069
H        4.64952273      -9.13417985       7.39767853
H        3.47883973      -6.08743979       4.52051574
H        1.60281303      -7.89424827      -1.86429192
H        0.08220420      -8.28265194      -2.67826008
H        0.48143838      -9.07335581      -1.15968177
H       -2.18135504      -6.61912543      -0.15539492
H       -1.69961956      -8.32377848      -0.13265922
H       -2.14151409      -7.55145870      -1.64981649
H       -0.77757447      -4.93381387      -1.46710237
H       -0.55535894      -5.99080347      -2.85205759
H        0.86121438      -5.35650720      -2.00388785
