182
Properties=species:S:1:pos:R:3 pbc="F F F"
C        2.89122922      -1.28861116      -8.60845101
C        3.34373317      -0.12595349      -7.73577427
C        4.84709673      -0.16666785      -7.37952445
C        5.27154944       1.09219051      -6.60378242
C        4.63918299       1.12696927      -5.23836615
C        3.91967587       2.18531179      -4.81813914
C        3.17008257       2.25432390      -3.60787596
S        3.07341265       3.75962140      -2.76517437
C        2.06747331       3.10733696      -1.54643339
C        1.78871845       1.78871845      -1.78871845
C        2.39773586       1.29614617      -2.96779152
C        4.86592072      -0.09697427      -4.41224013
O        5.14484913      -0.04932362      -3.22156304
C        4.75814895      -1.39498363      -5.15195737
C        4.19981805      -2.39031745      -4.43689736
C        3.97243598      -3.71180346      -4.91462978
S        2.51022752      -4.51452803      -4.45710440
C        2.91620030      -5.92762651      -5.32653792
C        4.13848699      -5.80173471      -5.93080585
C        4.75934471      -4.55187111      -5.68651650
C        5.25697275      -1.40960554      -6.57033642
H        1.86186612      -1.12527498      -8.94417786
H        2.90863785      -2.23407843      -8.05829440
H        3.52515047      -1.38824010      -9.49499114
H        2.72205865      -0.10644360      -6.83357972
H        3.13781495       0.80583591      -8.27729790
H        5.40993511      -0.18112086      -8.32279884
H        5.01433430       1.98504229      -7.18713229
H        6.36333297       1.10503560      -6.48807181
H        3.86174666       3.06001106      -5.46407083
H        1.73065843       3.72421239      -0.72539394
H        2.28317408       0.28286384      -3.33126690
H        3.86043871      -2.18373868      -3.42022887
H        2.24282079      -6.77325723      -5.34122488
H        5.73940055      -4.27611928      -6.05525546
H        6.35412564      -1.45465788      -6.53343087
H        4.94198035      -2.30375413      -7.11200168
C        4.76484760      -6.81993271      -6.73364160
C        5.28942461      -7.67267352      -7.40601655
Br       6.13762126      -9.05148330      -8.49318996
C       -5.37739488       2.24827679      -7.08195098
C       -5.30910156       0.84670679      -6.49115918
C       -6.62638255       0.39036077      -5.82393155
C       -6.53815497      -1.07269831      -5.35666911
C       -5.55888333      -1.22216704      -4.22346804
C       -4.54140914      -2.10311938      -4.27859827
C       -3.48818377      -2.21877377      -3.32532489
S       -2.84055925      -3.78201169      -2.97563749
C       -1.69961153      -3.15283286      -1.86879928
C       -1.78871845      -1.78871845      -1.78871845
C       -2.79246377      -1.24407154      -2.62513824
C       -5.80386843      -0.31635741      -3.06096074
O       -5.72369164      -0.69384107      -1.89955584
C       -6.18698561       1.08756680      -3.41570388
C       -5.67876830       2.02146566      -2.58909531
C       -5.88206869       3.42446154      -2.71765515
S       -4.55785790       4.48460293      -2.37954891
C       -5.48275302       5.88122860      -2.71358729
C       -6.76825258       5.55300216      -3.05230771
C       -7.01364674       4.15769620      -3.03803955
C       -7.05162602       1.26665628      -4.63273388
H       -4.47192893       2.45359099      -7.66243106
H       -5.44341903       3.01073037      -6.30016517
H       -6.23885257       2.35535554      -7.74840449
H       -4.47193589       0.80788249      -5.78514136
H       -5.06710475       0.14763314      -7.30147715
H       -7.41879895       0.44962057      -6.58243470
H       -6.26810859      -1.71208032      -6.20631997
H       -7.52547649      -1.41315826      -5.01780564
H       -4.47925345      -2.76750751      -5.13906759
H       -1.02364995      -3.81279830      -1.34381653
H       -3.00354169      -0.18552519      -2.70823794
H       -5.03397496       1.70443513      -1.76738907
H       -5.03765658       6.86342096      -2.63655282
H       -7.97470936       3.70601654      -3.24984392
H       -8.07830453       0.99581034      -4.35040443
H       -7.09904781       2.30760160      -4.95878169
C       -7.79630738       6.50430717      -3.38655629
C       -8.65730327       7.30102512      -3.66648947
Br     -10.04946081       8.58925065      -4.11911775
C       -2.56375919      -1.09120103       8.73851092
C       -3.08344289       0.02598434       7.84412672
C       -4.59539940      -0.07574271       7.54029663
C       -5.08714476       1.14172151       6.73865610
C       -4.50119088       1.15104426       5.35228327
C       -3.83187640       2.21752158       4.87372882
C       -3.12491779       2.27009656       3.63726809
S       -3.10660972       3.74847066       2.74312804
C       -2.11953909       3.08862023       1.51308434
C       -1.78871845       1.78871845       1.78871845
C       -2.34198943       1.31658388       3.00310025
C       -4.71335310      -0.10680815       4.57464163
O       -5.03242408      -0.10846349       3.39312796
C       -4.53779479      -1.37492604       5.35225394
C       -3.96983937      -2.37506407       4.65162266
C       -3.68255737      -3.67156591       5.16427085
S       -2.20981399      -4.44113506       4.68412496
C       -2.53932150      -5.83660041       5.61239062
C       -3.74479486      -5.73034304       6.25310631
C       -4.41508828      -4.51034827       5.98925008
C       -4.98930508      -1.35797155       6.78637009
H       -1.53008588      -0.88314241       9.03382552
H       -2.56721134      -2.05474830       8.22039078
H       -3.16470128      -1.18150279       9.64870303
H       -2.49254282       0.03532783       6.92132412
H       -2.89150913       0.98172730       8.34771233
H       -5.12635855      -0.07673015       8.50198469
H       -4.84129298       2.06165371       7.28356219
H       -6.18193379       1.11503358       6.65947301
H       -3.78243732       3.11493056       5.48846067
H       -1.83068289       3.68811540       0.66146648
H       -2.18152461       0.32041261       3.39536760
H       -3.67096666      -2.19192738       3.61788962
H       -1.83768660      -6.65883719       5.63193902
H       -5.39133496      -4.25443668       6.38163846
H       -6.08493422      -1.44001069       6.78797510
H       -4.62683505      -2.22259250       7.34598535
C       -4.30993761      -6.74077835       7.10939724
C       -4.78324466      -7.58701792       7.82654089
Br      -5.54854213      -8.95531574       8.98610153
C        6.34941193       2.33261629       6.19427343
C        6.07169358       0.89500117       5.77686154
C        7.25101994       0.22605565       5.03498904
C        6.96138281      -1.25745398       4.74868559
C        5.84942801      -1.40936887       3.74572154
C        4.76029286      -2.15857838       4.00425556
C        3.59917555      -2.25030305       3.18280384
S        2.75986913      -3.75716961       3.08116969
C        1.57058499      -3.11849852       2.03216015
C        1.78871845      -1.78871845       1.78871845
C        2.93141277      -1.27933388       2.45092689
C        6.05168705      -0.66068902       2.46881051
O        5.80179092      -1.14311753       1.37218010
C        6.61391336       0.71934700       2.62055633
C        6.11290295       1.61575873       1.74925373
C        6.47159485       2.99225879       1.69592624
S        5.23263978       4.15611771       1.37628181
C        6.32717905       5.46518455       1.45311720
C        7.60262716       5.02910974       1.69404071
C        7.70114761       3.62081807       1.81366056
C        7.62514396       0.92213080       3.71469046
H        5.54157909       2.69777128       6.83696118
H        6.40350399       2.99883265       5.32818248
H        7.28750480       2.40842035       6.75281708
H        5.16006993       0.87984890       5.16897374
H        5.85340934       0.31435369       6.68189311
H        8.12647692       0.27185019       5.69698636
H        6.72594437      -1.77190629       5.68865823
H        7.86381157      -1.74082777       4.35180105
H        4.72898241      -2.72029313       4.93655302
H        0.77549297      -3.74736544       1.65740636
H        3.25747308      -0.24876034       2.39107140
H        5.34984239       1.29197615       1.03906265
H        5.97876253       6.47862197       1.31064787
H        8.62893315       3.08670528       1.97630887
H        8.58000278       0.50884354       3.36173938
H        7.81531755       1.97871974       3.91363009
C        8.75370068       5.88637115       1.81122697
C        9.71772475       6.60432759       1.90937046
Br      11.27647014       7.76520242       2.06806019
C       -0.00445707       0.01189536      -1.78238275
H       -0.66409135       0.67374010      -2.43557963
H        0.65740317      -0.63156657      -2.45157240
C       -0.90989263      -0.90692880      -0.91072765
C        0.90977584       0.90977584      -0.90977584
C       -0.00465871       1.77757030       0.00794375
H       -0.66225468       2.44313916      -0.64384735
H        0.64322798       2.43503045       0.67728295
C       -1.78241447       0.00034974      -0.00472694
H       -2.45427497      -0.65498947       0.64260836
H       -2.43311707       0.67328779      -0.65473579
C       -0.91132561       0.90220522       0.91563759
C       -0.01476271      -0.02253852       1.78660255
H       -0.67934791      -0.69751639       2.42135241
H        0.63392994       0.61504881       2.47327442
C        0.01484550      -1.77751727      -0.01636693
H        0.67870853      -2.42144646      -0.68295456
H       -0.62264859      -2.45592969       0.64226336
C        1.78714474       0.01002794       0.00389507
H        2.44202412       0.67113390       0.66197326
H        2.45385902      -0.65136977      -0.64189061
C        0.91606151      -0.90478549       0.90901405
