169
Properties=species:S:1:pos:R:3 pbc="F F F"
C        0.00000000       0.00000000       0.00000000
C        0.87935484       0.87935484      -0.87935484
C        0.84594444       2.24840154      -0.89606419
S        1.97087686       2.87926624      -2.01689123
C        2.52780980       1.30416701      -2.47069665
C        1.81869744       0.33028281      -1.78659802
C        3.53212357       1.20756297      -3.47738325
C        4.50407158       0.27893112      -3.51279679
C        4.85697365      -0.79773868      -2.53068541
C        4.86877350      -2.16513746      -3.23044432
C        5.88050743      -2.14491128      -4.39214112
C        5.62218927      -1.00836736      -5.35905379
C        5.65227369      -1.21289553      -6.69056762
C        5.39569199      -0.25029172      -7.71270390
S        6.21215937      -0.42611504      -9.23041848
C        5.47515961       0.96706439      -9.88791474
C        4.60845187       1.53474835      -8.99321349
Br       3.58524918       3.08410212      -9.32417891
C        4.53816317       0.83844122      -7.76158838
C        5.37739457       0.32599434      -4.72461944
O        5.85896164       1.37148456      -5.13573769
C        5.14140335      -3.28710174      -2.24384783
C        4.15864336      -4.26209498      -2.01225460
C        4.37452626      -5.28726030      -1.08942342
C        5.57440236      -5.35238648      -0.38598354
C        6.56039257      -4.39393290      -0.60646024
C        6.34655895      -3.36764883      -1.52888624
H        0.21829341       2.91224902      -0.31812582
H        1.96125804      -0.73219773      -1.93720976
H        3.48904764       1.95181176      -4.27437347
H        4.19059207      -0.81881845      -1.66531793
H        5.85047490      -0.56849572      -2.12096632
H        3.87077404      -2.32940080      -3.66413776
H        6.90461458      -2.03547313      -4.01234700
H        5.84769818      -3.11235530      -4.91045408
H        5.90314631      -2.21389603      -7.04148047
H        5.71217096       1.29220274     -10.89115135
H        3.90076556       1.13556127      -6.93927549
H        3.21026182      -4.23115844      -2.54463925
H        3.60356905      -6.03366268      -0.91643399
H        5.74047892      -6.14820714       0.33546921
H        7.49649062      -4.44256757      -0.05555115
H        7.13221698      -2.62942162      -1.67323025
C       -0.87935484      -0.87935484      -0.87935484
C       -0.58402934      -1.23893990      -2.16744093
S       -1.81386049      -2.22244296      -2.83073088
C       -2.74385722      -2.18786678      -1.37094946
C       -2.11632294      -1.39697347      -0.42228187
C       -3.99265105      -2.87450205      -1.34991669
C       -4.51001318      -3.50501857      -0.28076773
C       -3.93330582      -3.73986834       1.08325379
C       -4.88977500      -3.20295105       2.15864569
C       -6.25946267      -3.89604697       2.02777237
C       -6.83607731      -3.76994062       0.63314224
C       -8.13069304      -3.44604367       0.44679094
C       -8.79755244      -3.25929384      -0.80125789
S      -10.48593019      -3.63558170      -0.89495092
C      -10.57980018      -3.20537793      -2.54496064
C       -9.37135004      -2.75805513      -3.00700854
Br      -9.04408261      -2.17796463      -4.77148298
C       -8.35648447      -2.76298519      -2.01872311
C       -5.88063730      -4.06581927      -0.48155178
O       -6.17245043      -4.72534633      -1.46838712
C       -4.29573003      -3.35092735       3.54850795
C       -4.01133106      -2.20510263       4.30763071
C       -3.43906440      -2.31404604       5.57642106
C       -3.14347089      -3.56834063       6.10381209
C       -3.42207981      -4.71485735       5.36401724
C       -3.99431302      -4.60823527       4.09475193
H        0.28149856      -0.97240857      -2.75775824
H       -2.53156909      -1.19060978       0.55590879
H       -4.55923833      -2.87337597      -2.28261857
H       -2.93946845      -3.30317657       1.20555347
H       -3.78722108      -4.82199285       1.20626843
H       -5.04260797      -2.13007806       1.96717503
H       -6.17644869      -4.96559637       2.26055660
H       -6.94596295      -3.47270452       2.77287051
H       -8.75028881      -3.31425731       1.33381537
H      -11.51152260      -3.29916122      -3.08484123
H       -7.34109954      -2.43549933      -2.19900344
H       -4.22748028      -1.21298824       3.91672589
H       -3.21999588      -1.41857352       6.15222904
H       -2.69406619      -3.65262063       7.08988425
H       -3.18902223      -5.69450177       5.77404979
H       -4.19271876      -5.52135721       3.53805038
C       -0.87935484       0.87935484       0.87935484
C       -0.42576420       1.64225703       1.92238893
S       -1.70884123       2.48223705       2.67595605
C       -2.88442134       1.83739466       1.58085746
C       -2.28038317       0.96669610       0.68849902
C       -4.24972854       2.20299753       1.76434373
C       -5.14238619       2.37922182       0.77419148
C       -4.96471399       2.33935068      -0.71414430
C       -5.94032709       1.32748563      -1.33373237
C       -7.38757996       1.71574977      -0.97559246
C       -7.58917226       1.86591318       0.51779026
C       -8.66776031       1.33540247       1.12678300
C       -8.96835705       1.36805252       2.52169461
S      -10.63231652       1.38071643       3.00342986
C      -10.24171165       1.42305433       4.66537277
C       -8.88606605       1.39665174       4.85369593
Br      -8.03479558       1.42228485       6.53644978
C       -8.15271741       1.34254652       3.64292885
C       -6.53811455       2.66331128       1.22658252
O       -6.78306414       3.49463558       2.08848418
C       -5.72757005       1.20288167      -2.83230229
C       -5.30327244      -0.02047794      -3.37399152
C       -5.07367018      -0.15217756      -4.74480324
C       -5.26484672       0.93571955      -5.59256685
C       -5.68811068       2.15553479      -5.07072556
C       -5.91823277       2.28954536      -3.69998177
H        0.58616611       1.74675547       2.28807889
H       -2.82215261       0.40835782      -0.06424036
H       -4.57714406       2.34203659       2.79605222
H       -3.93916585       2.11182263      -1.01389692
H       -5.15961488       3.34785603      -1.10452541
H       -5.73952216       0.34545124      -0.87946240
H       -7.66165611       2.66792637      -1.44809403
H       -8.07133172       0.96153097      -1.38706573
H       -9.40182325       0.82822365       0.50068385
H      -11.02221062       1.46111803       5.41219640
H       -7.07229266       1.30700000       3.59630966
H       -5.14123271      -0.88454790      -2.73294218
H       -4.74128337      -1.10401871      -5.15092431
H       -5.08194645       0.83401040      -6.65915428
H       -5.83497274       3.00622007      -5.73171861
H       -6.24041224       3.25697518      -3.32136182
C        0.87935484      -0.87935484       0.87935484
C        0.78288002      -2.24284119       0.96468896
S        1.93069343      -2.87503163       2.06130927
C        2.58217747      -1.30964368       2.41085230
C        1.88666093      -0.33519856       1.71371878
C        3.63804100      -1.21545554       3.36357326
C        4.65287849      -0.33493945       3.30798155
C        5.00713418       0.67607921       2.25886540
C        5.11708791       2.07245310       2.88944554
C        6.18249406       2.05695735       4.00220056
C        5.91906301       0.98085601       5.03466870
C        6.02389627       1.24564682       6.35169632
C        5.77303069       0.34558125       7.43065474
S        6.67022742       0.55188849       8.89812389
C        5.90205804      -0.77125286       9.65682785
C        4.96696531      -1.33695252       8.83249589
Br       3.88994908      -2.81713695       9.28644418
C        4.86900183      -0.69633831       7.57285264
C        5.58139444      -0.36808477       4.47852914
O        6.03316278      -1.41557199       4.91744912
C        5.39315188       3.13238718       1.83738473
C        4.44684661       4.14249178       1.60444815
C        4.66489693       5.11160949       0.62340194
C        5.83058348       5.08491186      -0.13767219
C        6.78033941       4.09063128       0.08321178
C        6.56426154       3.12027802       1.06381284
H        0.09732846      -2.90140200       0.44993779
H        2.08591411       0.72489239       1.80524835
H        3.59935714      -1.91865051       4.19722522
H        4.30085187       0.68934366       1.42558334
H        5.96756338       0.37952554       1.81490765
H        4.15031014       2.30551681       3.36071767
H        7.18052278       1.87983146       3.58079714
H        6.22036235       3.04800398       4.47343859
H        6.33815815       2.24844785       6.64102046
H        6.17250785      -1.06039188      10.66262532
H        4.17888136      -0.99995253       6.79676844
H        3.52529063       4.18298239       2.18143439
H        3.92210124       5.88600450       0.45024362
H        5.99809741       5.83706062      -0.90423422
H        7.68955898       4.06753481      -0.51254996
H        7.32070222       2.35198060       1.20730398
