177
Properties=species:S:1:pos:R:3 pbc="F F F"
C        0.00000000       0.00000000       0.00000000
C        0.87935484       0.87935484      -0.87935484
C        0.84594444       2.24840154      -0.89606419
S        1.97087686       2.87926624      -2.01689123
C        2.52780980       1.30416701      -2.47069665
C        1.81869744       0.33028281      -1.78659802
C        3.53212357       1.20756297      -3.47738325
C        4.50407158       0.27893112      -3.51279679
C        4.85697365      -0.79773868      -2.53068541
C        4.86877350      -2.16513746      -3.23044432
C        5.88050743      -2.14491128      -4.39214112
C        5.62218927      -1.00836736      -5.35905379
C        5.65227369      -1.21289553      -6.69056762
C        5.39569199      -0.25029172      -7.71270390
S        6.21215937      -0.42611504      -9.23041848
C        5.47515961       0.96706439      -9.88791474
C        4.60845187       1.53474835      -8.99321349
C        4.53816317       0.83844122      -7.76158838
C        5.37739457       0.32599434      -4.72461944
O        5.85896164       1.37148456      -5.13573769
C        5.14140335      -3.28710174      -2.24384783
C        4.15864336      -4.26209498      -2.01225460
C        4.37452626      -5.28726030      -1.08942342
C        5.57440236      -5.35238648      -0.38598354
C        6.56039257      -4.39393290      -0.60646024
C        6.34655895      -3.36764883      -1.52888624
H        0.21829341       2.91224902      -0.31812582
H        1.96125804      -0.73219773      -1.93720976
H        3.48904764       1.95181176      -4.27437347
H        4.19059207      -0.81881845      -1.66531793
H        5.85047490      -0.56849572      -2.12096632
H        3.87077404      -2.32940080      -3.66413776
H        6.90461458      -2.03547313      -4.01234700
H        5.84769818      -3.11235530      -4.91045408
H        5.90314631      -2.21389603      -7.04148047
H        5.71217096       1.29220274     -10.89115135
H        3.90076556       1.13556127      -6.93927549
H        3.21026182      -4.23115844      -2.54463925
H        3.60356905      -6.03366268      -0.91643399
H        5.74047892      -6.14820714       0.33546921
H        7.49649062      -4.44256757      -0.05555115
H        7.13221698      -2.62942162      -1.67323025
C        3.82721359       2.71771483      -9.24591304
C        3.17292652       3.70844925      -9.45754891
Br       2.11499968       5.31038301      -9.79974622
C       -0.87935484      -0.87935484      -0.87935484
C       -1.81934587      -1.75898705      -0.41207724
S       -2.59686612      -2.57183231      -1.69833590
C       -1.68295750      -1.72173291      -2.89798304
C       -0.77863875      -0.86458332      -2.29235621
C       -1.90932034      -2.03876402      -4.26898544
C       -1.85027765      -1.16020166      -5.28532017
C       -1.63687071       0.32394410      -5.27699376
C       -0.44684748       0.68960443      -6.17683731
C       -0.70890608       0.19249674      -7.61132793
C       -1.02881228      -1.28701330      -7.65705011
C       -0.46155943      -2.08898611      -8.57940023
C       -0.64144475      -3.49805153      -8.71860790
S       -0.52480843      -4.18856729     -10.30308709
C       -0.82896093      -5.76904769      -9.73213012
C       -0.98411025      -5.78022534      -8.37207812
C       -0.85714655      -4.49835770      -7.78268853
C       -2.02803509      -1.75540366      -6.64456960
O       -2.93105852      -2.54014407      -6.89498130
C       -0.15271934       2.17863334      -6.12406343
C        1.07373989       2.62626657      -5.60880944
C        1.35620043       3.99088049      -5.52377029
C        0.41793873       4.92624220      -5.95218036
C       -0.80255390       4.49787851      -6.46824452
C       -1.08722104       3.13353030      -6.55410562
H       -2.08690303      -1.97465305       0.61288782
H       -0.06786166      -0.25870901      -2.83969941
H       -2.14336319      -3.08142076      -4.49044892
H       -1.49203179       0.72696268      -4.27202244
H       -2.55634952       0.79928428      -5.64588026
H        0.43752860       0.15518358      -5.79822318
H       -1.55303821       0.73183918      -8.06028942
H        0.16650574       0.42115312      -8.23345582
H        0.20448066      -1.62705349      -9.30815791
H       -0.87400592      -6.60210564     -10.41941350
H       -0.94078827      -4.31524802      -6.71956602
H        1.82200724       1.91648017      -5.26223004
H        2.30818560       4.32435168      -5.11887764
H        0.63647101       5.98865167      -5.88192525
H       -1.53678572       5.22774253      -6.80043101
H       -2.05213744       2.83027329      -6.95416146
C       -1.24646569      -6.95807341      -7.58630235
C       -1.46618837      -7.94452117      -6.92821515
Br      -1.82146136      -9.53952376      -5.86414380
C       -0.87935484       0.87935484       0.87935484
C       -1.84806475       1.72832461       0.41402080
S       -2.61549742       2.55224829       1.69928862
C       -1.65787094       1.74821286       2.89658965
C       -0.74820592       0.89755535       2.28981700
C       -1.86178118       2.09016473       4.26512389
C       -1.76191422       1.23543647       5.29844879
C       -1.51641723      -0.24364502       5.31714816
C       -0.29976834      -0.56411218       6.19842420
C       -0.54192990      -0.04154484       7.62735220
C       -0.89297733       1.43144563       7.64845274
C       -0.32379288       2.26526698       8.54088591
C       -0.53135308       3.67287287       8.65387822
S       -0.39601285       4.40011170      10.22033826
C       -0.74667766       5.96091284       9.62254825
C       -0.93102598       5.93911312       8.26627461
C       -0.78874496       4.64769843       7.70174939
C       -1.92355905       1.85621076       6.64823854
O       -2.83793154       2.62677370       6.90147865
C        0.02557011      -2.04732105       6.17104059
C        1.25022344      -2.47980657       5.63883299
C        1.56049777      -3.83961107       5.57679822
C        0.65221545      -4.78521944       6.04543431
C       -0.56603652      -4.37184946       6.57873286
C       -0.87849309      -3.01233972       6.64164299
H       -2.14207644       1.91582667      -0.60923485
H       -0.01286466       0.31907003       2.83433539
H       -2.11372725       3.13217058       4.46933505
H       -1.38430551      -0.66530165       4.31808769
H       -2.41722825      -0.73034331       5.71606056
H        0.56446021      -0.01932206       5.78929327
H       -1.36432449      -0.58886114       8.10602511
H        0.35133896      -0.23784316       8.23497908
H        0.36756496       1.83365789       9.26463782
H       -0.79520086       6.80761014      10.29271405
H       -0.89104451       4.43970365       6.64485416
H        1.97526587      -1.76193890       5.26094741
H        2.51067058      -4.16143897       5.15844991
H        0.89231617      -5.84400221       5.99312096
H       -1.27691929      -5.10979973       6.94235465
H       -1.84103540      -2.72109341       7.05608361
C       -1.23571721       7.09367659       7.46144765
C       -1.49089612       8.06062350       6.78740507
Br      -1.90349882       9.62409487       5.69753522
C        0.87935484      -0.87935484       0.87935484
C        0.54970173      -2.14014777       1.30056066
S        1.78293865      -2.80614558       2.27795009
C        2.78238808      -1.40158454       2.11870084
C        2.13923268      -0.44049693       1.35584867
C        4.03138516      -1.38071336       2.80497127
C        5.15211942      -0.79129282       2.35238724
C        5.43350402      -0.10952206       1.04689429
C        5.95109552       1.31481219       1.29779702
C        7.22619779       1.25914172       2.16068119
C        7.01515448       0.49076176       3.44848297
C        7.47581508       0.96747055       4.62160125
C        7.32100207       0.37271608       5.90981819
S        8.56137733       0.63522035       7.09030583
C        7.75792478      -0.30134719       8.27086678
C        6.56517399      -0.77587733       7.79536240
C        6.29580055      -0.38031691       6.46207532
C        6.30703182      -0.82056904       3.30040749
O        6.64312509      -1.84261059       3.88044822
C        6.16650200       2.06109673      -0.00725583
C        5.40053157       3.20310677      -0.28862183
C        5.56021764       3.88993700      -1.49359127
C        6.48678667       3.44561243      -2.43317482
C        7.25619545       2.31559300      -2.16768254
C        7.09805091       1.62703560      -0.96321895
H       -0.34971900      -2.70351762       1.09486963
H        2.55120492       0.54029676       1.15536191
H        4.05818815      -1.88424417       3.77280056
H        4.56622210      -0.08784395       0.38302550
H        6.18819531      -0.70269538       0.51205480
H        5.18479040       1.85412878       1.87484938
H        8.04463197       0.77520359       1.61206008
H        7.56084767       2.28398868       2.36893797
H        8.03323777       1.90392748       4.60142046
H        8.19829613      -0.45056495       9.24666397
H        5.39749764      -0.65368668       5.92441800
H        4.66585468       3.56818368       0.42607163
H        4.95776443       4.77056603      -1.70085805
H        6.60786747       3.97810364      -3.37296126
H        7.97797343       1.96645600      -2.90204323
H        7.70766565       0.74339046      -0.78824959
C        5.64938264      -1.59363809       8.54782072
C        4.88240738      -2.27851273       9.17800457
Br       3.64227326      -3.38589710      10.19695856
