145
Properties=species:S:1:pos:R:3 pbc="F F F"
C        0.00000000       0.00000000       0.00000000
C        0.87813276       0.87813276      -0.87813276
C        0.96822940       2.24067468      -0.77738696
S        2.04986357       2.87610410      -1.93964429
C        2.42036486       1.31036881      -2.57065698
C        1.68532284       0.33808826      -1.91031985
C        3.32312259       1.21945121      -3.66806871
C        4.23145280       0.24292578      -3.84149254
C        4.61490853      -0.91183534      -2.97103633
N        4.55431360      -2.17246856      -3.72557743
C        4.86249670      -3.30383509      -2.84859286
C        5.50452003      -2.12377905      -4.84816910
C        5.20571234      -0.98830113      -5.79151574
C        5.15671051      -1.16229314      -7.12605187
C        4.83993341      -0.16951069      -8.10040942
S        5.58916065      -0.27184735      -9.65839069
C        4.79623115       1.13119001     -10.22586708
C        3.96089226       1.64673029      -9.27165784
C        3.96075562       0.90253482      -8.06659869
C        5.00967391       0.32309646      -5.10920900
O        5.47275872       1.37799924      -5.52287224
H        0.45325785       2.89935349      -0.09217522
H        1.71904197      -0.71453636      -2.16941989
H        3.25392338       2.01134660      -4.41592222
H        3.97047798      -0.98101280      -2.09216258
H        5.62888711      -0.74021459      -2.58344948
H        4.78697320      -4.24808316      -3.39882592
H        4.13932423      -3.36133709      -2.02766186
H        5.86801339      -3.23417821      -2.41827309
H        6.53679298      -2.02147223      -4.48535274
H        5.45366024      -3.07598097      -5.39168339
H        5.37263081      -2.15580285      -7.51693373
H        4.98054648       1.49898715     -11.22553609
H        3.35689227       1.15139004      -7.20366453
C        3.14642711       2.82201750      -9.44179449
C        2.46431254       3.80632054      -9.58428393
Br       1.36139098       5.39785531      -9.81467731
C       -0.87813276      -0.87813276      -0.87813276
C       -1.73806186      -0.41197155      -1.83625763
S       -2.55840491      -1.69825560      -2.60895144
C       -1.73857932      -2.89427927      -1.66853206
C       -0.88474728      -2.29032805      -0.75865561
C       -2.06901000      -4.26335677      -1.87827575
C       -1.19351883      -5.28350485      -1.83884743
C        0.29244762      -5.30040494      -1.66615220
N        0.67742904      -6.20892217      -0.57592934
C        2.12614609      -6.16588319      -0.36751736
C        0.24913491      -7.57924930      -0.89879569
C       -1.24130912      -7.67329407      -1.09432377
C       -1.97971492      -8.63407239      -0.50668193
C       -3.39587362      -8.78585948      -0.58909904
S       -4.06055604     -10.38397153      -0.53117642
C       -5.66471192      -9.81362640      -0.67494992
C       -5.69960849      -8.44634359      -0.73332832
C       -4.41681403      -7.85012202      -0.66295309
C       -1.79274701      -6.63618367      -2.01304870
O       -2.63875966      -6.86808303      -2.86678751
H       -1.93680970       0.61202048      -2.11999734
H       -0.30071621      -2.84265481      -0.03055448
H       -3.11910556      -4.47991603      -2.08217061
H        0.68254168      -4.30080561      -1.46336384
H        0.75426801      -5.61333374      -2.61305626
H        2.41394274      -6.81687569       0.46521698
H        2.44527146      -5.15316367      -0.09775680
H        2.68353636      -6.47742652      -1.25821811
H        0.74987779      -7.94410765      -1.80644364
H        0.55493976      -8.24377804      -0.08052438
H       -1.45986127      -9.37420316       0.10030274
H       -6.49302513     -10.50760975      -0.70443485
H       -4.24589612      -6.78168219      -0.68436854
C       -6.90027101      -7.65996210      -0.85000599
C       -7.90582587      -7.00136761      -0.94772354
Br      -9.53172302      -5.93647601      -1.10572456
C       -0.87813276       0.87813276       0.87813276
C       -1.94405818       1.61175250       0.43048036
S       -2.67897137       2.47755205       1.70908852
C       -1.57446869       1.84738806       2.87953390
C       -0.64455496       1.02042926       2.26874672
C       -1.70010057       2.28033176       4.23021019
C       -1.49939218       1.50549129       5.31098763
C       -1.19405111       0.04609127       5.43396714
N       -0.00315852      -0.16580913       6.27007309
C        0.32940923      -1.59065665       6.32732034
C       -0.24970740       0.35513231       7.62407037
C       -0.56903345       1.82700354       7.61288997
C        0.02705612       2.69376174       8.45376363
C       -0.16863977       4.10630047       8.49589190
S       -0.03964187       4.91337050      10.02269162
C       -0.37210714       6.44309625       9.33808485
C       -0.54506232       6.35101144       7.98320663
C       -0.40958542       5.03023195       7.49007176
C       -1.61505893       2.20670208       6.62021836
O       -2.51899781       2.99730998       6.85732241
H       -2.32723769       1.69448932      -0.57694045
H        0.17548236       0.54953958       2.79986828
H       -1.97843126       3.32533471       4.37742623
H       -1.03976526      -0.41369271       4.45555522
H       -2.06719403      -0.46191468       5.86684264
H        1.23496385      -1.75012736       6.92280717
H        0.54277146      -1.97568320       5.32410366
H       -0.47953319      -2.18905385       6.76162893
H       -1.07616164      -0.18366578       8.10817764
H        0.64420444       0.17780950       8.23575759
H        0.73651282       2.29341598       9.17685853
H       -0.41845897       7.32480195       9.96180881
H       -0.50303669       4.76352460       6.44538555
C       -0.83232328       7.46315998       7.11475584
C       -1.07290434       8.39458438       6.38742830
Br      -1.46190356       9.90061886       5.21140119
C        0.87813276      -0.87813276       0.87813276
C        2.21484759      -0.67611988       1.09532358
S        2.86053647      -1.87379054       2.13128495
C        1.33147774      -2.65911103       2.31080188
C        0.36744694      -2.01737545       1.54890855
C        1.26473388      -3.83527871       3.11062992
C        0.23713560      -4.16596468       3.91277084
C       -1.01673133      -3.42851383       4.26232702
N       -2.19725003      -4.27403019       4.03064231
C       -3.42239124      -3.52160283       4.30804287
C       -2.12699883      -5.46810365       4.88780525
C       -0.89270610      -6.28691127       4.61472178
C       -0.94435255      -7.62166223       4.44315956
C        0.15243388      -8.48119115       4.13720711
S        0.12716649     -10.10208729       4.74645022
C        1.63396777     -10.48274863       4.03657184
C        2.12943973      -9.42043304       3.32940762
C        1.28477579      -8.28397775       3.36113559
C        0.36525463      -5.48649117       4.59023358
O        1.41159860      -5.85277426       5.10925734
H        2.85021241       0.10253765       0.69711180
H       -0.65764574      -2.36248642       1.46908482
H        2.12221390      -4.50785488       3.05112342
H       -1.11059163      -2.50491537       3.68730403
H       -0.96214043      -3.11886134       5.31540108
H       -4.30551215      -4.13743981       4.10578830
H       -3.49322196      -2.64767988       3.65119109
H       -3.47210593      -3.17700315       5.34721105
H       -2.14052860      -5.19024146       5.95096065
H       -3.02059591      -6.08007640       4.70988217
H       -1.91387866      -8.10884199       4.53879836
H        2.07203252     -11.46180470       4.17123250
H        1.50480759      -7.35411574       2.85302350
C        3.37697135      -9.42306659       2.61020116
C        4.42177908      -9.42527219       2.00786575
Br       6.11114481      -9.42883845       1.03394034
