166
Properties=species:S:1:pos:R:3 pbc="F F F"
C        1.78803678       1.78803678      -1.78803678
C        1.87813343       3.15057870      -1.68729099
S        2.95976759       3.78600812      -2.84954831
C        3.33026888       2.22027284      -3.48056100
C        2.59522686       1.24799228      -2.82022388
C        4.23302662       2.12935524      -4.57797274
C        5.14135682       1.15282980      -4.75139656
C        5.52481255      -0.00193131      -3.88094035
N        5.46421763      -1.26256453      -4.63548145
C        5.77240072      -2.39393107      -3.75849688
C        6.41442405      -1.21387502      -5.75807312
C        6.11561636      -0.07839710      -6.70141977
C        6.06661453      -0.25238911      -8.03595589
C        5.74983743       0.74039334      -9.01031345
S        6.49906468       0.63805667     -10.56829471
C        5.70613518       2.04109403     -11.13577111
C        4.87079629       2.55663431     -10.18156187
C        4.87065964       1.81243884      -8.97650272
C        5.91957794       1.23300049      -6.01911302
O        6.38266275       2.28790326      -6.43277627
H        1.36316187       3.80925751      -1.00207925
H        2.62894600       0.19536766      -3.07932392
H        4.16382740       2.92125062      -5.32582624
H        4.88038200      -0.07110877      -3.00206661
H        6.53879113       0.16968943      -3.49335350
H        5.69687723      -3.33817913      -4.30872994
H        5.04922826      -2.45143307      -2.93756589
H        6.77791741      -2.32427419      -3.32817711
H        7.44669701      -1.11156820      -5.39525677
H        6.36356427      -2.16607695      -6.30158741
H        6.28253483      -1.24589882      -8.42683776
H        5.89045051       2.40889118     -12.13544012
H        4.26679630       2.06129406      -8.11356855
C        4.05633113       3.73192152     -10.35169852
C        3.37421657       4.71622456     -10.49418796
Br       2.27129500       6.30775933     -10.72458134
C       -1.78803678      -1.78803678      -1.78803678
C       -2.62291806      -1.32400865      -2.76907641
S       -3.45228950      -2.60931174      -3.53372279
C       -2.67004402      -3.80259776      -2.55846093
C       -1.82158141      -3.19758361      -1.64427800
C       -3.02085060      -5.16923378      -2.75027021
C       -2.16427043      -6.20352494      -2.67778781
C       -0.68204244      -6.24309013      -2.47868903
N       -0.33203841      -7.13879581      -1.36630032
C        1.11338891      -7.11716682      -1.13318862
C       -0.77874330      -8.50697957      -1.67289927
C       -2.26700587      -8.57864999      -1.89298317
C       -3.03227099      -9.51601250      -1.30189782
C       -4.44924465      -9.64470138      -1.40659818
S       -5.14286506     -11.22980590      -1.33274510
C       -6.73400224     -10.63441013      -1.51458794
C       -6.74380401      -9.26796806      -1.59722039
C       -5.45212032      -8.69288463      -1.51459626
C       -2.78411882      -7.54849060      -2.83908202
O       -3.61918495      -7.78071315      -3.70344418
H       -2.79866625      -0.30188571      -3.07394667
H       -1.26005123      -3.74702740      -0.89655894
H       -4.07091127      -5.37114779      -2.96884521
H       -0.27797581      -5.24697448      -2.28638954
H       -0.20948880      -6.58058658      -3.41175869
H        1.37522729      -7.75827838      -0.28437694
H        1.44558070      -6.10552785      -0.87541393
H        1.68053525      -7.45394224      -2.00841335
H       -0.26887259      -8.89637202      -2.56514096
H       -0.49889030      -9.16218950      -0.83799493
H       -2.53610977     -10.25422516      -0.67313883
H       -7.57377200     -11.31436924      -1.54664056
H       -5.26207167      -7.62810477      -1.55148247
C       -7.92823581      -8.46310613      -1.74860923
C       -8.92019744      -7.78903426      -1.87539739
Br     -10.52411550      -6.69911706      -2.08040311
C       -1.78803678       1.78803678       1.78803678
C       -2.20874650       3.04868806       1.45856857
S       -3.17188967       3.72302371       2.70041064
C       -3.04488360       2.30540273       3.68081639
C       -2.24090277       1.36118967       3.06135058
C       -3.68094917       2.30463061       4.95477480
C       -4.28937448       1.24310736       5.51310134
C       -4.55011019      -0.13268484       4.98639624
N       -4.05923084      -1.14996711       5.92787082
C       -4.25474571      -2.49089641       5.37311724
C       -4.76826585      -1.02047003       7.21082632
C       -4.57027538       0.33802132       7.83034233
C       -4.23420323       0.49046052       9.12551756
C       -3.98018898       1.72326267       9.79709256
S       -4.38111501       1.84701070      11.47729036
C       -3.84353691       3.46597197      11.57349143
C       -3.34356972       3.89275489      10.37266785
C       -3.39569736       2.90290937       9.36099448
C       -4.81444203       1.46838913       6.88886029
O       -5.42395730       2.48502309       7.19436190
H       -1.99763948       3.61472840       0.56213075
H       -1.98071292       0.41003254       3.51289212
H       -3.65897513       3.24694770       5.50498144
H       -4.08278440      -0.28227738       4.01083282
H       -5.63024544      -0.24785204       4.81944066
H       -3.86107957      -3.25070976       6.05705823
H       -3.70414317      -2.60121968       4.43243759
H       -5.31113401      -2.71173727       5.18242360
H       -5.84517569      -1.19948084       7.08469073
H       -4.39755538      -1.79403551       7.89555487
H       -4.13708284      -0.40769520       9.73408612
H       -3.91829197       4.01449418      12.50199565
H       -3.03786242       3.05306990       8.35072659
C       -2.80675007       5.20617898      10.12702213
C       -2.35716361       6.30617165       9.92129383
Br      -1.63022032       8.08476677       9.58864858
C        1.78803678      -1.78803678       1.78803678
C        2.71376046      -1.32030813       2.68193453
S        3.51035106      -2.60774822       3.47722475
C        2.59189243      -3.80483426       2.63437603
C        1.72385040      -3.20290684       1.73668578
C        2.86867717      -5.17715496       2.89452246
C        1.94626398      -6.15458753       2.94473168
C        0.45449338      -6.10767567       2.84165255
N       -0.02408325      -7.04578206       1.81543574
C       -1.47765174      -6.94250706       1.67211122
C        0.35574969      -8.41886502       2.18400744
C        1.84798196      -8.57563950       2.31501757
C        2.51214311      -9.59697538       1.74106282
C        3.92213728      -9.81298569       1.76542124
S        4.50896439     -11.44228833       1.75416334
C        6.14274645     -10.94402426       1.79622961
C        6.24333450      -9.57878338       1.78687458
C        4.98745106      -8.92521136       1.74693879
C        2.49028695      -7.52515694       3.15624756
O        3.36494706      -7.75806840       3.98032682
H        2.97290716      -0.29512638       2.90646509
H        1.08054598      -3.75933575       1.06375585
H        3.91630489      -5.43453086       3.06006851
H        0.10150265      -5.10081011       2.60902708
H        0.02499964      -6.35401948       3.82281495
H       -1.83497473      -7.61649818       0.88590458
H       -1.76246043      -5.92905957       1.36876194
H       -2.00515157      -7.18544314       2.60152877
H       -0.11686559      -8.71695139       3.13029977
H       -0.01946650      -9.10482712       1.41371411
H        1.93007255     -10.33831140       1.19508981
H        6.93868611     -11.67508582       1.82100987
H        4.86713980      -7.84991531       1.72460380
C        7.48316060      -8.84673563       1.81005495
C        8.52151495      -8.23364563       1.82946851
Br      10.20044613      -7.24233096       1.86085858
C       -0.00445707       0.01189536      -1.78238275
H       -0.66409135       0.67374010      -2.43557963
H        0.65740317      -0.63156657      -2.45157240
C       -0.90989263      -0.90692880      -0.91072765
C        0.90977584       0.90977584      -0.90977584
C       -0.00465871       1.77757030       0.00794375
H       -0.66225468       2.44313916      -0.64384735
H        0.64322798       2.43503045       0.67728295
C       -1.78241447       0.00034974      -0.00472694
H       -2.45427497      -0.65498947       0.64260836
H       -2.43311707       0.67328779      -0.65473579
C       -0.91132561       0.90220522       0.91563759
C       -0.01476271      -0.02253852       1.78660255
H       -0.67934791      -0.69751639       2.42135241
H        0.63392994       0.61504881       2.47327442
C        0.01484550      -1.77751727      -0.01636693
H        0.67870853      -2.42144646      -0.68295456
H       -0.62264859      -2.45592969       0.64226336
C        1.78714474       0.01002794       0.00389507
H        2.44202412       0.67113390       0.66197326
H        2.45385902      -0.65136977      -0.64189061
C        0.91606151      -0.90478549       0.90901405
