137
Properties=species:S:1:pos:R:3 pbc="F F F"
C        0.00000000       0.00000000       0.00000000
C        0.87813276       0.87813276      -0.87813276
C        0.96822940       2.24067468      -0.77738696
S        2.04986357       2.87610410      -1.93964429
C        2.42036486       1.31036881      -2.57065698
C        1.68532284       0.33808826      -1.91031985
C        3.32312259       1.21945121      -3.66806871
C        4.23145280       0.24292578      -3.84149254
C        4.61490853      -0.91183534      -2.97103633
N        4.55431360      -2.17246856      -3.72557743
C        4.86249670      -3.30383509      -2.84859286
C        5.50452003      -2.12377905      -4.84816910
C        5.20571234      -0.98830113      -5.79151574
C        5.15671051      -1.16229314      -7.12605187
C        4.83993341      -0.16951069      -8.10040942
S        5.58916065      -0.27184735      -9.65839069
C        4.79623115       1.13119001     -10.22586708
C        3.96089226       1.64673029      -9.27165784
Br       2.89470066       3.18526310      -9.49437856
C        3.96075562       0.90253482      -8.06659869
C        5.00967391       0.32309646      -5.10920900
O        5.47275872       1.37799924      -5.52287224
H        0.45325785       2.89935349      -0.09217522
H        1.71904197      -0.71453636      -2.16941989
H        3.25392338       2.01134660      -4.41592222
H        3.97047798      -0.98101280      -2.09216258
H        5.62888711      -0.74021459      -2.58344948
H        4.78697320      -4.24808316      -3.39882592
H        4.13932423      -3.36133709      -2.02766186
H        5.86801339      -3.23417821      -2.41827309
H        6.53679298      -2.02147223      -4.48535274
H        5.45366024      -3.07598097      -5.39168339
H        5.37263081      -2.15580285      -7.51693373
H        4.98054648       1.49898715     -11.22553609
H        3.35689227       1.15139004      -7.20366453
C       -0.87813276      -0.87813276      -0.87813276
C       -1.11422918      -0.66255005      -2.20951181
S       -2.15761687      -1.85489034      -2.85310473
C       -2.27770457      -2.68286719      -1.34081888
C       -1.55242354      -2.01485251      -0.36645490
C       -3.10957237      -3.83603779      -1.26503236
C       -2.83975044      -4.93614351      -0.53997717
C       -1.64338019      -5.30830792       0.27757858
N       -2.04547175      -5.69892047       1.63696975
C       -0.86411837      -5.99353883       2.45040273
C       -2.92737816      -6.87523389       1.57370197
C       -4.17062330      -6.60567059       0.76736693
C       -5.39734902      -6.93677635       1.21365613
C       -6.63693003      -6.68697207       0.55306996
S       -7.93219796      -7.81546210       0.77195607
C       -8.98847652      -6.92843395      -0.23637777
C       -8.38728799      -5.79005249      -0.70193991
Br      -9.20757513      -4.52895321      -1.83781397
C       -7.05734118      -5.63096267      -0.24158527
C       -3.90161068      -5.98076209      -0.55960661
O       -4.46978634      -6.31176556      -1.59207830
H       -0.73938991       0.13288349      -2.83828014
H       -1.52052705      -2.32556287       0.67216442
H       -4.03357029      -3.80268675      -1.84493515
H       -0.92489983      -4.48767845       0.33095051
H       -1.11645740      -6.13272532      -0.22293928
H       -1.15725541      -6.25379995       3.47333940
H       -0.21929008      -5.11098579       2.52462687
H       -0.27235493      -6.81956833       2.03981499
H       -2.40239899      -7.73728256       1.13900805
H       -3.20714794      -7.15868971       2.59647499
H       -5.46842212      -7.44158856       2.17624899
H       -9.99056927      -7.28487574      -0.42962472
H       -6.42732114      -4.78860220      -0.49602350
C       -0.87813276       0.87813276       0.87813276
C       -2.21166928       0.66788039       1.10674138
S       -2.85858192       1.86842253       2.13860751
C       -1.33412124       2.66631968       2.30094973
C       -0.37099494       2.02606935       1.53666665
C       -1.27022312       3.84886232       3.09155707
C       -0.23921986       4.19307829       3.88357295
C        1.02264122       3.46752094       4.22922981
N        2.19509861       4.31998092       3.98254016
C        3.42781438       3.57869938       4.25636947
C        2.12229922       5.51984359       4.83136571
C        0.87997074       6.32746631       4.56143139
C        0.92042398       7.66124958       4.37964364
C       -0.18495111       8.51036182       4.07551921
S       -0.16724042      10.13588536       4.67257822
C       -1.68202848      10.50012696       3.97113281
C       -2.17479381       9.42895497       3.27553161
Br      -3.81478413       9.41334916       2.34620902
C       -1.32149224       8.29903188       3.30936502
C       -0.37215037       5.51762385       4.55220515
O       -1.41732975       5.88002351       5.07627694
H       -2.84414866      -0.11838443       0.71902231
H        0.65088637       2.37813343       1.44667845
H       -2.13309602       4.51463062       3.03346555
H        1.11911967       2.54039045       3.66035699
H        0.97812772       3.16531240       5.28493732
H        4.30481522       4.19951650       4.04301468
H        3.50029123       2.70046328       3.60547696
H        3.48775796       3.24221197       5.29765425
H        2.14574069       5.25000131       5.89641288
H        3.00998396       6.13705491       4.64229171
H        1.88698042       8.15626915       4.46447297
H       -2.12635486      11.47689746       4.10181741
H       -1.53834827       7.36381905       2.80977952
C        0.87813276      -0.87813276       0.87813276
C        0.95449970      -0.78944106       2.24235029
S        2.05442085      -1.93564319       2.87554791
C        2.41642570      -2.57411539       1.31084956
C        1.72241449      -1.87775497       0.33356148
C        3.37476587      -3.62272813       1.21314852
C        3.30281053      -4.65680063       0.35625996
C        2.24301482      -5.05345729      -0.62236259
N        2.81992601      -5.24829536      -1.96079890
C        1.76594186      -5.56723521      -2.92592262
C        3.81641463      -6.33025325      -1.91775780
C        4.93509067      -6.02910997      -0.95527368
C        6.22946198      -6.18422208      -1.29321482
C        7.36128317      -5.88677245      -0.47722348
S        8.78937356      -6.84874099      -0.66241056
C        9.63432004      -5.97823251       0.54073569
C        8.86674395      -4.96453044       1.04800600
Br       9.42400002      -3.76193371       2.38840858
C        7.58008064      -4.88898654       0.46082196
C        4.46694554      -5.58570123       0.38933260
O        4.96232817      -5.97100838       1.44029366
H        0.43255284      -0.11035333       2.90188039
H        1.82926363      -2.07265000      -0.72798813
H        4.22669144      -3.56187358       1.89262718
H        1.44668274      -4.30794658      -0.67300155
H        1.76366780      -5.97694628      -0.26849208
H        2.18699113      -5.68149869      -3.93077385
H        1.03763142      -4.75081514      -2.98279756
H        1.23165296      -6.48879873      -2.66834342
H        3.34975499      -7.28343543      -1.63251692
H        4.22681018      -6.46880513      -2.92625265
H        6.45210951      -6.56919772      -2.28754554
H       10.64546733      -6.25197852       0.80762388
H        6.83802541      -4.14737892       0.72654251
