149
Properties=species:S:1:pos:R:3 pbc="F F F"
C        0.00000000       0.00000000       0.00000000
C        0.87898143       0.87898143      -0.87898143
C        0.50549366       2.09578476      -1.38458938
S        1.75958548       2.78769613      -2.31624714
C        2.80583850       1.43297672      -2.06337531
C        2.19362597       0.49742953      -1.24509369
C        4.10184017       1.46769864      -2.65269790
C        4.73835665       0.40836668      -3.18907388
C        4.26326900      -1.01286838      -3.31417037
C        4.62882152      -1.66349179      -4.65732057
C        4.26884612      -3.14963199      -4.64600407
C        6.11852323      -1.47352176      -4.95810343
C        6.46252427      -0.00947761      -4.98184833
C        7.07231367       0.55795776      -6.04017353
C        7.37599534       1.94246823      -6.20102234
S        8.77390174       2.38212530      -7.12288177
C        8.49869765       4.05367669      -6.90456512
C        7.36134850       4.27571387      -6.17663263
C        6.70389221       3.08305344      -5.78669078
C        6.09284909       0.72803833      -3.73963913
O        6.84970882       1.51689460      -3.18788160
H       -0.43048677       2.62071503      -1.25189636
H        2.67533588      -0.41665142      -0.92139667
H        4.58881956       2.44428743      -2.67938544
H        3.17651977      -1.08131597      -3.20110272
H        4.70639818      -1.59044781      -2.49193647
H        4.04182423      -1.18054717      -5.45115855
H        4.83417420      -3.69060072      -3.87915336
H        4.48897764      -3.60996701      -5.61502882
H        3.20209746      -3.29033054      -4.44224702
H        6.73131411      -1.97384512      -4.19684572
H        6.36029386      -1.94998349      -5.91655222
H        7.35595233      -0.08767560      -6.87028488
H        9.17918303       4.78102493      -7.32431778
H        5.78439917       3.06049178      -5.21662484
C        6.84940961       5.57572904      -5.82809408
C        6.42066079       6.66449175      -5.53619304
Br       5.72741021       8.42492896      -5.06421374
C       -0.87898143      -0.87898143      -0.87898143
C       -1.41065697      -0.49415824      -2.08105260
S       -2.33310277      -1.75206425      -2.77836174
C       -2.04086734      -2.81589604      -1.44542716
C       -1.21729306      -2.20553609      -0.51332002
C       -2.60951795      -4.12073154      -1.49198722
C       -3.11787066      -4.78318533      -0.43474122
C       -3.22715581      -4.33342010       0.99600491
C       -4.55323475      -4.73167711       1.66226157
C       -4.52319704      -4.39579289       3.15377172
C       -4.83283944      -6.22286183       1.45259636
C       -4.87519665      -6.54334109      -0.01635725
C       -5.93270054      -7.16123866      -0.57650575
C       -6.11146528      -7.44497130      -1.96304934
S       -7.01760292      -8.85059560      -2.41071028
C       -6.83147131      -8.54465619      -4.08081196
C       -6.12591356      -7.39196001      -4.29582143
C       -5.72704714      -6.74763702      -3.09895227
C       -3.65153587      -6.14121828      -0.76777239
O       -3.10065987      -6.87591218      -1.57791298
H       -1.30191192       0.45230633      -2.59251904
H       -0.87072576      -2.69663551       0.38728014
H       -2.64442779      -4.59213088      -2.47593376
H       -3.13066928      -3.24620697       1.08056972
H       -2.38837950      -4.77222778       1.55272045
H       -5.36439839      -4.15011020       1.20207298
H       -3.73840623      -4.95708694       3.67276634
H       -5.48076491      -4.63938358       3.62610904
H       -4.33452502      -3.32825051       3.30876159
H       -4.05354015      -6.83103705       1.93026249
H       -5.77921535      -6.48817327       1.94052604
H       -6.74729414      -7.46903674       0.07776927
H       -7.25206930      -9.22006640      -4.81239004
H       -5.17172284      -5.81932943      -3.07046351
C       -5.80730168      -6.85324097      -5.59269008
C       -5.54046423      -6.40206378      -6.67881756
Br      -5.10901065      -5.67254842      -8.43499385
C       -0.87898143       0.87898143       0.87898143
C       -2.22345480       0.69664711       1.06576590
S       -2.86408590       1.87395976       2.12548309
C       -1.33142526       2.65379099       2.31697428
C       -0.35551705       1.98114807       1.59948406
C       -1.25990691       3.79072482       3.17160498
C       -0.50565523       4.88402155       2.94612043
C        0.39965683       5.18139758       1.78283024
C        0.32069936       6.63931222       1.30403743
C        1.38547317       6.91022599       0.24046539
C        0.48297539       7.60161489       2.48446540
C       -0.57596118       7.33907021       3.51986360
C       -1.38869308       8.31612889       3.96562299
C       -2.46986529       8.16563852       4.88398210
S       -2.86087128       9.49070228       5.92733525
C       -4.15160464       8.64531988       6.66001493
C       -4.30253552       7.40150711       6.10965238
C       -3.36378004       7.12420902       5.08564737
C       -0.62005469       5.93117101       4.00930084
O       -0.71257387       5.64544276       5.19646840
H       -2.86340860      -0.06711477       0.64583079
H        0.68844563       2.26839308       1.60013367
H       -1.89062648       3.75985288       4.06201306
H        0.16989314       4.54114403       0.92505562
H        1.42864332       4.94865932       2.08787083
H       -0.66411224       6.80373330       0.84459007
H        2.39499756       6.77401095       0.64371345
H        1.30758461       7.93621066      -0.13458661
H        1.26682283       6.23178644      -0.61094967
H        1.47247942       7.48198194       2.94481218
H        0.43022034       8.63575328       2.12132963
H       -1.22711813       9.32452208       3.58692141
H       -4.73166910       9.10528521       7.44757143
H       -3.33608524       6.19703039       4.52840015
C       -5.30630557       6.44601637       6.50091078
C       -6.14696299       5.64579289       6.82858970
Br      -7.50623494       4.35189919       7.35841879
C        0.87898143      -0.87898143       0.87898143
C        1.31114031      -2.13384127       0.54088623
S        2.28431180      -2.80424293       1.77497402
C        2.10487188      -1.41147591       2.78584274
C        1.33795204      -0.44931640       2.14888074
C        2.76505201      -1.40948409       4.04770061
C        2.26383341      -0.88776574       5.18419807
C        0.93567938      -0.21950998       5.40938163
C        0.27422385      -0.60754205       6.74088440
C       -0.97943296       0.23489870       6.97954987
C        1.26201608      -0.44154880       7.89954003
C        2.48602025      -1.28369715       7.66517759
C        2.91731255      -2.17601992       8.57711248
C        4.01488076      -3.07518372       8.42942144
S        4.90947865      -3.52896593       9.84046423
C        5.95966424      -4.54326248       8.95401274
C        5.62479721      -4.56163887       7.62725892
C        4.50874416      -3.74520174       7.31969054
C        3.17124323      -1.02254388       6.36673944
O        4.38563897      -0.89629513       6.27255093
H        1.11668890      -2.69077069      -0.36533496
H        1.12380627       0.52152683       2.57780169
H        3.74328951      -1.89304197       4.07616094
H        0.22811998      -0.45908910       4.60909744
H        1.09501332       0.86665367       5.37952717
H       -0.03340373      -1.66119404       6.68464530
H       -0.73476962       1.29996782       7.05746427
H       -1.47838647      -0.06537653       7.90704939
H       -1.69386350       0.11099968       6.15887712
H        1.56336662       0.60934862       8.00029670
H        0.76934228      -0.71696381       8.84055649
H        2.37741045      -2.24023787       9.52091329
H        6.75926899      -5.07379623       9.45146052
H        4.09234955      -3.64301765       6.32614859
C        6.30971973      -5.32618215       6.61733085
C        6.88334233      -5.96648716       5.77151609
Br       7.81084157      -7.00180619       4.40390515
