170
Properties=species:S:1:pos:R:3 pbc="F F F"
C        1.78888546       1.78888546      -1.78888546
C        1.41539768       3.00568879      -2.29449341
S        2.66948951       3.69760016      -3.22615116
C        3.71574253       2.34288074      -2.97327933
C        3.10352999       1.40733355      -2.15499771
C        5.01174419       2.37760266      -3.56260193
C        5.64826068       1.31827070      -4.09897790
C        5.17317302      -0.10296435      -4.22407439
C        5.53872555      -0.75358777      -5.56722459
C        5.17875015      -2.23972796      -5.55590810
C        7.02842726      -0.56361773      -5.86800746
C        7.37242829       0.90042641      -5.89175235
C        7.98221770       1.46786178      -6.95007755
C        8.28589937       2.85237226      -7.11092637
S        9.68380576       3.29202932      -8.03278580
C        9.40860167       4.96358071      -7.81446914
C        8.27125252       5.18561790      -7.08653665
C        7.61379624       3.99295747      -6.69659481
C        7.00275311       1.63794235      -4.64954316
O        7.75961284       2.42679863      -4.09778563
H        0.47941726       3.53061905      -2.16180039
H        3.58523991       0.49325260      -1.83130069
H        5.49872358       3.35419145      -3.58928946
H        4.08642379      -0.17141195      -4.11100674
H        5.61630220      -0.68054379      -3.40184049
H        4.95172826      -0.27064315      -6.36106257
H        5.74407822      -2.78069670      -4.78905738
H        5.39888167      -2.70006299      -6.52493285
H        4.11200148      -2.38042652      -5.35215105
H        7.64121813      -1.06394110      -5.10674975
H        7.27019788      -1.04007947      -6.82645624
H        8.26585635       0.82222842      -7.78018891
H       10.08908705       5.69092895      -8.23422180
H        6.69430319       3.97039580      -6.12652886
C        7.75931363       6.48563307      -6.73799810
C        7.33056481       7.57439578      -6.44609706
Br       6.63731423       9.33483299      -5.97411777
C       -1.78888546      -1.78888546      -1.78888546
C       -2.87432452      -1.34493120      -2.49632416
S       -3.60284774      -2.61866237      -3.37173072
C       -2.47013119      -3.78400227      -2.77776914
C       -1.53827110      -3.17376757      -1.95382258
C       -2.60107428      -5.13161895      -3.21925555
C       -2.38705427      -6.22157808      -2.45687694
C       -1.99000294      -6.29588357      -1.00839655
C       -2.71983233      -7.40193926      -0.23059078
C       -2.14471129      -7.53065321       1.18043422
C       -2.62093217      -8.73668508      -0.97519973
C       -3.20123550      -8.60662944      -2.35674212
C       -4.16967223      -9.43152419      -2.79896061
C       -4.84137526      -9.35284134      -4.05498139
S       -5.40538551     -10.81745333      -4.78578205
C       -6.05764863      -9.99548212      -6.13352077
C       -5.87931128      -8.64336387      -6.02073192
C       -5.20536355      -8.26415570      -4.83382925
C       -2.59689531      -7.51715513      -3.17618818
O       -2.26601725      -7.67336642      -4.34481343
H       -3.27496605      -0.34227975      -2.55459090
H       -0.71099531      -3.70204156      -1.49675634
H       -2.92157679      -5.26666021      -4.25396750
H       -2.18341876      -5.34960324      -0.49299659
H       -0.90620838      -6.46746858      -0.96392194
H       -3.77926005      -7.12417932      -0.13870832
H       -1.08817037      -7.81941780       1.15514927
H       -2.68816649      -8.28923838       1.75365335
H       -2.22321843      -6.58149097       1.72098339
H       -1.57350872      -9.05600026      -1.05451780
H       -3.14183029      -9.51345997      -0.40128439
H       -4.49373268     -10.23532648      -2.13921453
H       -6.53970253     -10.54438660      -6.93014869
H       -4.98541626      -7.23878097      -4.56703062
C       -6.32364709      -7.67242103      -6.98687668
C       -6.69577833      -6.85925641      -7.79602292
Br      -7.29748306      -5.54443798      -9.10434395
C       -1.78888546       1.78888546       1.78888546
C       -2.78345144       1.32427113       2.60785731
S       -3.54350161       2.60630270       3.44343651
C       -2.54942163       3.80043288       2.68204809
C       -1.63463808       3.19673430       1.83448887
C       -2.75195305       5.16524342       3.03475231
C       -2.67771178       6.20568804       2.18210946
C       -2.39223875       6.19631004       0.70573427
C       -3.25895549       7.18403512      -0.09062823
C       -2.79791559       7.24439346      -1.54737876
C       -3.21023642       8.57586437       0.54671619
C       -3.67843606       8.51152775       1.97464325
C       -4.67345890       9.29664580       2.43005233
C       -5.24549388       9.26717873       3.73652538
S       -5.86700859      10.73965433       4.40195796
C       -6.35583878       9.97948537       5.85132738
C       -6.08230894       8.63893313       5.82216500
C       -5.46779113       8.21853936       4.61701801
C       -2.93481121       7.53452326       2.82090415
O       -2.53419199       7.80364859       3.94635652
H       -3.10039342       0.30300686       2.76843642
H       -0.88538897       3.74603213       1.27837210
H       -3.00705052       5.35638137       4.07877261
H       -2.54849990       5.20170074       0.27581794
H       -1.33086911       6.44106512       0.56566467
H       -4.29766411       6.82492417      -0.08044060
H       -1.76769164       7.60910656      -1.62435929
H       -3.43786183       7.91568605      -2.12979635
H       -2.84148292       6.25320147      -2.01095838
H       -2.18756855       8.97447228       0.52198595
H       -3.82920303       9.26680616      -0.03943454
H       -5.10490541      10.02193198       1.74143629
H       -6.82053766      10.55227359       6.64142656
H       -5.18909535       7.19402068       4.40811183
C       -6.38018422       7.71607522       6.88668536
C       -6.62965477       6.94318172       7.77822115
Br      -7.03302755       5.69347830       9.21975914
C        1.78888546      -1.78888546       1.78888546
C        1.61455212      -3.13583219       1.96519557
S        2.80037756      -3.77909487       3.01376839
C        3.54080680      -2.23425379       3.25684202
C        2.89310752      -1.26605647       2.50669726
C        4.68058829      -2.16361574       4.10774475
C        4.95141401      -1.15511113       4.95898414
C        4.15217160       0.08920188       5.23131334
C        4.10860396       0.47440213       6.71816054
C        3.42976482       1.83277590       6.89794136
C        5.52167984       0.49732928       7.30846643
C        6.17795758      -0.84564562       7.14100385
C        6.69602549      -1.51648833       8.18764321
C        7.27061616      -2.82180701       8.15677482
S        8.53869352      -3.19519662       9.27473074
C        8.69391842      -4.79525071       8.69748240
C        7.78943686      -5.05108007       7.70289014
C        6.96179888      -3.94219638       7.39935325
C        6.21877511      -1.33758527       5.73387824
O        7.22249844      -1.82871648       5.23298218
H        0.86230884      -3.77934677       1.53018109
H        3.20621486      -0.23008870       2.47348964
H        5.36272341      -3.01474932       4.06473176
H        3.11772958      -0.01870515       4.88958386
H        4.59585763       0.90908330       4.65082457
H        3.51105491      -0.27485937       7.25623340
H        3.98850266       2.62746742       6.39140367
H        3.35867560       2.09402908       7.95910500
H        2.41470107       1.81818721       6.48721215
H        6.13400334       1.26056142       6.81058486
H        5.46957643       0.78036741       8.36736564
H        6.66916582      -1.03488255       9.16422532
H        9.43275814      -5.46152445       9.11995522
H        6.18143440      -3.95988667       6.64990678
C        7.65789765      -6.30956073       7.01548643
C        7.54773356      -7.36353828       6.43978581
Br       7.36960754      -9.06773084       5.50892661
C       -0.00445707       0.01189536      -1.78238275
H       -0.66409135       0.67374010      -2.43557963
H        0.65740317      -0.63156657      -2.45157240
C       -0.90989263      -0.90692880      -0.91072765
C        0.90977584       0.90977584      -0.90977584
C       -0.00465871       1.77757030       0.00794375
H       -0.66225468       2.44313916      -0.64384735
H        0.64322798       2.43503045       0.67728295
C       -1.78241447       0.00034974      -0.00472694
H       -2.45427497      -0.65498947       0.64260836
H       -2.43311707       0.67328779      -0.65473579
C       -0.91132561       0.90220522       0.91563759
C       -0.01476271      -0.02253852       1.78660255
H       -0.67934791      -0.69751639       2.42135241
H        0.63392994       0.61504881       2.47327442
C        0.01484550      -1.77751727      -0.01636693
H        0.67870853      -2.42144646      -0.68295456
H       -0.62264859      -2.45592969       0.64226336
C        1.78714474       0.01002794       0.00389507
H        2.44202412       0.67113390       0.66197326
H        2.45385902      -0.65136977      -0.64189061
C        0.91606151      -0.90478549       0.90901405
