161
Properties=species:S:1:pos:R:3 pbc="F F F"
C        0.00000000       0.00000000       0.00000000
C        0.87880551       0.87880551      -0.87880551
C        0.88370913       2.24818434      -0.85822315
S        1.99490067       2.87972421      -1.99349880
C        2.49444743       1.30571114      -2.49991922
C        1.77833339       0.32982341      -1.82473068
C        3.46747050       1.19670917      -3.53256069
C        4.44885093       0.27809735      -3.55944722
C        4.85890283      -0.75375579      -2.55717982
N        4.89602759      -2.09038811      -3.17241646
C        5.88168846      -2.10280690      -4.26551862
C        5.55342355      -1.08296244      -5.33000269
C        5.53069771      -1.39263845      -6.64090240
C        5.19407757      -0.52085329      -7.71999461
S        5.89568533      -0.82855764      -9.27511179
C        5.10883145       0.50680115      -9.99240447
C        4.31130520       1.15365814      -9.08764150
Br       3.26726108       2.67642454      -9.47013279
C        4.33229592       0.56344071      -7.80006029
C        5.29041885       0.27744441      -4.78468294
O        5.74234072       1.30606679      -5.26960548
C        5.08153274      -3.15274865      -2.15980637
C        4.78272129      -4.53774692      -2.74853106
C        6.44385437      -3.16809423      -1.45494219
H        0.28999372       2.91283424      -0.24634359
H        1.89374380      -0.73109976      -2.01419899
H        3.38638452       1.90810855      -4.35531346
H        4.18637294      -0.75726561      -1.69604450
H        5.84558784      -0.47555785      -2.16255387
H        6.89325641      -1.89834428      -3.89161081
H        5.90889979      -3.09657259      -4.72577818
H        5.78902162      -2.41306841      -6.92184426
H        5.26913154       0.74409742     -11.03468138
H        3.75410255       0.93120110      -6.96261356
H        4.31774156      -2.99809704      -1.38520713
H        5.56068136      -4.86998014      -3.44320117
H        3.82257755      -4.54273123      -3.27593227
H        4.71986152      -5.28390921      -1.94819623
H        7.26325235      -3.37751371      -2.14974018
H        6.46225342      -3.94671926      -0.68385824
H        6.65107543      -2.21787049      -0.95354433
C       -0.87880551      -0.87880551      -0.87880551
C       -0.55322132      -1.29439392      -2.14250139
S       -1.79462611      -2.25781690      -2.81568068
C       -2.76684122      -2.14041971      -1.39281686
C       -2.14712599      -1.33800607      -0.44775542
C       -4.03851446      -2.77890905      -1.37931685
C       -4.56129665      -3.41104376      -0.31405510
C       -3.98483529      -3.71075550       1.03326395
N       -4.86742180      -3.21016977       2.09953563
C       -6.17723970      -3.87545640       2.00829592
C       -6.83841719      -3.63409549       0.67204888
C       -8.11794370      -3.22631034       0.56529238
C       -8.82349380      -2.92996849      -0.63975660
S      -10.54420299      -3.14009734      -0.65793914
C      -10.67610308      -2.64483813      -2.28709586
C       -9.45424775      -2.30009562      -2.79826146
Br      -9.15694911      -1.69704816      -4.55982114
C       -8.39821029      -2.43395323      -1.86363339
C       -5.94833618      -3.91637769      -0.48783234
O       -6.30120090      -4.53203374      -1.48477835
C       -4.22158005      -3.29475359       3.42774317
C       -4.99073699      -2.47399638       4.47122794
C       -3.97516784      -4.71306201       3.95752752
H        0.34032526      -1.07822514      -2.71127168
H       -2.59579524      -1.08764648       0.50659869
H       -4.61806329      -2.72977009      -2.30197315
H       -2.98681756      -3.27919209       1.14085783
H       -3.84885921      -4.79779372       1.11406907
H       -6.08445789      -4.95904584       2.15698079
H       -6.83594968      -3.50227751       2.80012181
H       -8.68481716      -3.10003509       1.48705477
H      -11.63764281      -2.62965606      -2.78061147
H       -7.36668634      -2.19480253      -2.08642834
H       -3.24122443      -2.80597147       3.34234425
H       -5.94104969      -2.94119916       4.74834646
H       -5.19637895      -1.46281848       4.10341885
H       -4.39709057      -2.37418244       5.38712447
H       -4.91027973      -5.25514325       4.12994416
H       -3.44008517      -4.67245143       4.91314420
H       -3.35764489      -5.30014369       3.27103932
C       -0.87880551       0.87880551       0.87880551
C       -1.73439588       1.84184726       0.41387349
S       -2.54154050       2.62556238       1.70102081
C       -1.75886395       1.64938565       2.89182818
C       -0.86885272       0.77312489       2.29090987
C       -2.04425061       1.88693333       4.26555642
C       -2.16876156       0.92304685       5.19458709
C       -2.15624948      -0.56781887       5.07389623
N       -1.15403720      -1.15433712       5.97835585
C       -1.48804917      -0.81471745       7.37106846
C       -1.53092873       0.67891008       7.59062499
C       -0.88964276       1.27458688       8.61473202
C       -0.83033090       2.67432250       8.88856549
S       -0.62640545       3.18239822      10.53343580
C       -0.65165453       4.83870171      10.11768083
C       -0.78119967       5.00588417       8.76552100
Br      -0.84938535       6.67441409       7.89001897
C       -0.85805072       3.78289261       8.05485359
C       -2.36345585       1.40032160       6.58876876
O       -3.16043483       2.28422353       6.87335463
C       -0.96585102      -2.59903552       5.72177496
C        0.29720910      -3.12524325       6.41595779
C       -2.16202364      -3.49601292       6.06469161
H       -1.92344512       2.13505547      -0.60932903
H       -0.23363327       0.09466195       2.84854781
H       -2.15316937       2.92938300       4.56725416
H       -1.95911518      -0.87926824       4.04530488
H       -3.16282422      -0.93944691       5.30920654
H       -2.46001123      -1.23442039       7.66093210
H       -0.74170082      -1.24890222       8.04530677
H       -0.35114254       0.63418439       9.31247054
H       -0.56754509       5.59837505      10.88199020
H       -0.94958072       3.71982734       6.97850916
H       -0.77256533      -2.71397602       4.64626235
H        0.17696979      -3.19107634       7.50194852
H        1.16014268      -2.48544079       6.20136206
H        0.53774511      -4.13101991       6.05291356
H       -2.38760554      -3.48782702       7.13570030
H       -1.94976422      -4.53380048       5.78342865
H       -3.06243365      -3.19589676       5.52021238
C        0.87880551      -0.87880551       0.87880551
C        1.59523287      -0.43608794       1.95879582
S        2.46813104      -1.71273909       2.68725356
C        1.86148137      -2.87544746       1.56314895
C        1.03811327      -2.26389098       0.63088324
C        2.30108412      -4.22455835       1.67109789
C        1.51755005      -5.29853932       1.47030612
C        0.05024732      -5.41007523       1.20200430
N       -0.19698952      -6.19401888      -0.01897343
C        0.33764771      -7.55470588       0.15204659
C        1.82115302      -7.54429678       0.43501400
C        2.68745958      -8.32774834      -0.23624626
C        4.10567532      -8.36572558      -0.07818201
S        4.93364228      -9.84587594      -0.43727875
C        6.46064128      -9.19039816      -0.04300237
C        6.35354823      -7.87601264       0.32304397
Br       7.80100243      -6.78033937       0.83247660
C        5.02362281      -7.38990754       0.28226658
C        2.20764675      -6.61364041       1.53125905
O        2.99452555      -6.89983856       2.42364888
C       -1.61731895      -6.13412377      -0.42821436
C       -1.80437343      -6.65654491      -1.85866605
C       -2.61000315      -6.82644542       0.51426006
H        1.66188441       0.56757636       2.35486350
H        0.58083873      -2.79312376      -0.19711945
H        3.35160147      -4.37594966       1.92225540
H       -0.41112567      -4.42366403       1.11261347
H       -0.42301190      -5.88160993       2.07398582
H       -0.16685154      -8.08025555       0.97311894
H        0.15617626      -8.13877347      -0.75684434
H        2.27796960      -9.00489309      -0.98506522
H        7.35189762      -9.79901087      -0.10299815
H        4.74979725      -6.37188444       0.52623553
H       -1.89721289      -5.07243634      -0.47037180
H       -1.68668412      -7.74294269      -1.92235618
H       -1.08926751      -6.19004833      -2.54500223
H       -2.81021528      -6.41566567      -2.22130185
H       -2.43955613      -7.90625524       0.56877972
H       -3.63621754      -6.67511327       0.16049667
H       -2.55860128      -6.41749249       1.52785805
