190
Properties=species:S:1:pos:R:3 pbc="F F F"
C        1.78870953       1.78870953      -1.78870953
C        1.79361316       3.15808837      -1.76812718
S        2.90480470       3.78962824      -2.90340282
C        3.40435145       2.21561516      -3.40982324
C        2.68823741       1.23972744      -2.73463471
C        4.37737452       2.10661320      -4.44246472
C        5.35875495       1.18800138      -4.46935124
C        5.76880685       0.15614823      -3.46708384
N        5.80593161      -1.18048409      -4.08232048
C        6.79159249      -1.19290288      -5.17542265
C        6.46332758      -0.17305841      -6.23990672
C        6.44060173      -0.48273443      -7.55080643
C        6.10398160       0.38905073      -8.62989863
S        6.80558936       0.08134638     -10.18501581
C        6.01873547       1.41670518     -10.90230849
C        5.22120922       2.06356217      -9.99754553
C        5.24219994       1.47334473      -8.70996432
C        6.20032287       1.18734844      -5.69458697
O        6.65224475       2.21597081      -6.17950950
C        5.99143676      -2.24284462      -3.06971039
C        5.69262532      -3.62784289      -3.65843509
C        7.35375839      -2.25819021      -2.36484621
H        1.19989775       3.82273827      -1.15624761
H        2.80364783       0.17880426      -2.92410302
H        4.29628854       2.81801258      -5.26521748
H        5.09627696       0.15263841      -2.60594852
H        6.75549186       0.43434618      -3.07245789
H        7.80316043      -0.98844025      -4.80151483
H        6.81880381      -2.18666857      -5.63568221
H        6.69892565      -1.50316439      -7.83174829
H        6.17903557       1.65400144     -11.94458540
H        4.66400657       1.84110513      -7.87251759
H        5.22764558      -2.08819301      -2.29511116
H        6.47058538      -3.96007612      -4.35310520
H        4.73248157      -3.63282720      -4.18583629
H        5.62976555      -4.37400518      -2.85810025
H        8.17315637      -2.46760968      -3.05964421
H        7.37215744      -3.03681524      -1.59376227
H        7.56097945      -1.30796647      -1.86344836
C        4.42385248       3.22652840     -10.28966154
C        3.75606621       4.20051263     -10.53430870
Br       2.67631229       5.77536274     -10.92988246
C       -1.78870953      -1.78870953      -1.78870953
C       -3.14151244      -1.94010509      -1.63821117
S       -3.77719213      -3.01471038      -2.80593325
C       -2.23192247      -3.26023351      -3.53763388
C       -1.25516682      -2.55178982      -2.85564291
C       -2.13166950      -4.15593614      -4.63884679
C       -1.34656396      -3.95743745      -5.71210616
C       -0.49276461      -2.79391579      -6.10535852
N        0.88880077      -3.22814234      -6.36842644
C        0.89899951      -4.19418319      -7.47892857
C        0.05369105      -5.40840300      -7.17546393
C        0.50803878      -6.66423225      -7.35248026
C       -0.18863720      -7.87516228      -7.05913148
S        0.19990529      -9.29118764      -7.98066920
C       -0.93747522     -10.25399259      -7.14628133
C       -1.57573771      -9.53242132      -6.17415788
C       -1.14017971      -8.18658925      -6.09874004
C       -1.31510205      -5.07128366      -6.69587256
O       -2.33183608      -5.62827035      -7.08761864
C        1.79976179      -2.07563459      -6.54242974
C        3.26829957      -2.51511438      -6.47640270
C        1.56492257      -1.22691539      -7.79842158
H       -3.79027983      -1.48675340      -0.90185040
H       -0.20272420      -2.59225225      -3.11157866
H       -2.73097441      -5.06549970      -4.58304450
H       -0.50077101      -2.01960981      -5.33448307
H       -0.93511988      -2.32983904      -6.99733701
H        0.52851151      -3.73848025      -8.40626627
H        1.92653818      -4.51986763      -7.67448800
H        1.51279286      -6.78401851      -7.75628389
H       -1.07529811     -11.29340164      -7.40892266
H       -1.52339533      -7.47180830      -5.38242566
H        1.65697556      -1.41670519      -5.67483410
H        3.57544260      -3.07133663      -7.36772043
H        3.45280132      -3.14147942      -5.59681256
H        3.92247779      -1.63933347      -6.39700494
H        1.74580216      -1.79408838      -8.71690467
H        2.24414402      -0.36682233      -7.80642616
H        0.54623207      -0.82905259      -7.83364083
C       -2.58928324     -10.05558961      -5.29516958
C       -3.43812761     -10.49374304      -4.55901688
Br      -4.81063717     -11.20220009      -3.36872023
C       -1.78870953       1.78870953       1.78870953
C       -1.33226451       2.81418003       2.57338417
S       -2.61448642       3.56166478       3.42168456
C       -3.79648657       2.52070379       2.71259950
C       -3.18932082       1.59848803       1.87479070
C       -5.15842484       2.67152659       3.09650101
C       -6.20274672       2.55570090       2.25765995
C       -6.25788043       2.35816803       0.77599046
N       -7.08286300       1.18703137       0.43787364
C       -8.45796622       1.39711962       0.91902642
C       -8.50385246       1.61326073       2.41306269
C       -9.35563155       0.94132516       3.21171702
C       -9.45231242       1.03795917       4.63265937
S      -10.98373875       0.71156205       5.37665075
C      -10.38296901       1.00693120       6.94784893
C       -9.05009798       1.31599845       6.91622048
C       -8.50510919       1.31170807       5.60869174
C       -7.54444846       2.64694304       2.89086678
O       -7.82700122       3.51588977       3.70483407
C       -6.97534544       0.83881520      -0.99585811
C       -7.55142163      -0.55616311      -1.27204101
C       -7.57841396       1.85546661      -1.97346616
H       -0.31620336       3.15991888       2.70276139
H       -3.73295440       0.81701157       1.35658914
H       -5.34710261       2.88262233       4.14979366
H       -5.25606198       2.24365513       0.35514680
H       -6.66783693       3.27120497       0.32325404
H       -8.92263389       2.26324273       0.43035839
H       -9.07270122       0.52523955       0.66987668
H      -10.04557893       0.24361247       2.73831815
H      -11.03433094       0.93578416       7.80750731
H       -7.46566689       1.52008808       5.39187432
H       -5.90473061       0.75990188      -1.23006877
H       -8.64386349      -0.57454284      -1.20570619
H       -7.14948248      -1.29442403      -0.56956779
H       -7.28045432      -0.88463900      -2.28195470
H       -8.66148879       1.95240887      -1.84870677
H       -7.39547087       1.54090185      -3.00726826
H       -7.12775766       2.84572692      -1.85702324
C       -8.24906880       1.61644129       8.07453233
C       -7.57820686       1.86806216       9.04461851
Br      -6.49347984       2.27491184      10.61316581
C        1.78870953      -1.78870953       1.78870953
C        2.12700586      -1.50720953       3.08561331
S        3.13526419      -2.72304210       3.73952947
C        3.09811948      -3.64948454       2.28218584
C        2.35255213      -2.99734655       1.31270087
C        3.84392707      -4.85994793       2.22257744
C        3.42745984      -5.98080898       1.60783876
C        2.12790647      -6.31650183       0.94763062
N        2.35036381      -6.78669468      -0.42929049
C        3.17589850      -8.00511377      -0.40690001
C        4.51421298      -7.76531022       0.25065268
C        5.67400230      -8.15075754      -0.31608610
C        6.98902146      -7.93725444       0.19665506
S        8.23114405      -9.06935739      -0.22854989
C        9.41870173      -8.24144882       0.67759860
C        8.89840483      -7.11972240       1.26418968
C        7.52523271      -6.92323192       0.97704435
C        4.41022597      -7.09554106       1.57649124
O        5.04433730      -7.43787967       2.56550810
C        1.07909899      -6.91417252      -1.17496897
C        1.33275393      -7.07052953      -2.68006595
C        0.13106738      -8.01742210      -0.68807508
H        1.84579231      -0.65076177       3.68232954
H        2.22965997      -3.37331370       0.30358144
H        4.82280419      -4.85315920       2.70355521
H        1.45276259      -5.45741225       0.94468905
H        1.62634930      -7.08659438       1.54935225
H        2.66946335      -8.81921575       0.12755591
H        3.34405093      -8.35507091      -1.43130439
H        5.61868369      -8.67716028      -1.26833443
H       10.43092390      -8.61699996       0.72969855
H        6.95034387      -6.08319902       1.34408639
H        0.54570339      -5.95926258      -1.07040224
H        1.74134932      -8.05426944      -2.93200430
H        2.02565326      -6.30423681      -3.04439942
H        0.39542187      -6.95456856      -3.23612982
H        0.56345963      -9.01509602      -0.81336476
H       -0.80384183      -7.99241012      -1.25946382
H       -0.13534702      -7.88669777       0.36511059
C        9.64199201      -6.20587481       2.09217560
C       10.26474628      -5.44052745       2.78561380
Br      11.27168726      -4.20302550       3.90684472
C       -0.00445707       0.01189536      -1.78238275
H       -0.66409135       0.67374010      -2.43557963
H        0.65740317      -0.63156657      -2.45157240
C       -0.90989263      -0.90692880      -0.91072765
C        0.90977584       0.90977584      -0.90977584
C       -0.00465871       1.77757030       0.00794375
H       -0.66225468       2.44313916      -0.64384735
H        0.64322798       2.43503045       0.67728295
C       -1.78241447       0.00034974      -0.00472694
H       -2.45427497      -0.65498947       0.64260836
H       -2.43311707       0.67328779      -0.65473579
C       -0.91132561       0.90220522       0.91563759
C       -0.01476271      -0.02253852       1.78660255
H       -0.67934791      -0.69751639       2.42135241
H        0.63392994       0.61504881       2.47327442
C        0.01484550      -1.77751727      -0.01636693
H        0.67870853      -2.42144646      -0.68295456
H       -0.62264859      -2.45592969       0.64226336
C        1.78714474       0.01002794       0.00389507
H        2.44202412       0.67113390       0.66197326
H        2.45385902      -0.65136977      -0.64189061
C        0.91606151      -0.90478549       0.90901405
