169
Properties=species:S:1:pos:R:3 pbc="F F F"
C        0.00000000       0.00000000       0.00000000
C        0.87880551       0.87880551      -0.87880551
C        0.88370913       2.24818434      -0.85822315
S        1.99490067       2.87972421      -1.99349880
C        2.49444743       1.30571114      -2.49991922
C        1.77833339       0.32982341      -1.82473068
C        3.46747050       1.19670917      -3.53256069
C        4.44885093       0.27809735      -3.55944722
C        4.85890283      -0.75375579      -2.55717982
N        4.89602759      -2.09038811      -3.17241646
C        5.88168846      -2.10280690      -4.26551862
C        5.55342355      -1.08296244      -5.33000269
C        5.53069771      -1.39263845      -6.64090240
C        5.19407757      -0.52085329      -7.71999461
S        5.89568533      -0.82855764      -9.27511179
C        5.10883145       0.50680115      -9.99240447
C        4.31130520       1.15365814      -9.08764150
C        4.33229592       0.56344071      -7.80006029
C        5.29041885       0.27744441      -4.78468294
O        5.74234072       1.30606679      -5.26960548
C        5.08153274      -3.15274865      -2.15980637
C        4.78272129      -4.53774692      -2.74853106
C        6.44385437      -3.16809423      -1.45494219
H        0.28999372       2.91283424      -0.24634359
H        1.89374380      -0.73109976      -2.01419899
H        3.38638452       1.90810855      -4.35531346
H        4.18637294      -0.75726561      -1.69604450
H        5.84558784      -0.47555785      -2.16255387
H        6.89325641      -1.89834428      -3.89161081
H        5.90889979      -3.09657259      -4.72577818
H        5.78902162      -2.41306841      -6.92184426
H        5.26913154       0.74409742     -11.03468138
H        3.75410255       0.93120110      -6.96261356
H        4.31774156      -2.99809704      -1.38520713
H        5.56068136      -4.86998014      -3.44320117
H        3.82257755      -4.54273123      -3.27593227
H        4.71986152      -5.28390921      -1.94819623
H        7.26325235      -3.37751371      -2.14974018
H        6.46225342      -3.94671926      -0.68385824
H        6.65107543      -2.21787049      -0.95354433
C        3.51394846       2.31662438      -9.37975751
C        2.84616219       3.29060860      -9.62440467
Br       1.76640827       4.86545871     -10.01997844
C       -0.87880551      -0.87880551      -0.87880551
C       -1.89185377      -1.67816141      -0.42010144
S       -2.64368324      -2.52116281      -1.70327763
C       -1.62164645      -1.79005787      -2.88837346
C       -0.70174309      -0.94912461      -2.28201978
C       -1.78226259      -2.16195733      -4.25252044
C       -1.68517772      -1.31171282      -5.28950496
C       -1.50287018       0.17232888      -5.33178554
N       -0.34343487       0.53027143      -6.16489250
C       -0.56248022       0.06066848      -7.54258845
C       -0.76428100      -1.43492549      -7.60125732
C       -0.09302145      -2.21836359      -8.46757661
C       -0.17655733      -3.63917461      -8.57748695
S        0.14186777      -4.36468467     -10.11942257
C       -0.13193011      -5.94462040      -9.53148656
C       -0.42796466      -5.92926586      -8.19537432
C       -0.43116305      -4.62721389      -7.63741998
C       -1.78355108      -1.93249792      -6.63649721
O       -2.64718370      -2.75227060      -6.91855869
C       -0.00835994       1.96627664      -6.04650716
C        1.37799399       2.26206559      -6.63356502
C       -1.04060479       2.93959692      -6.62969446
H       -2.22612865      -1.82102944       0.59798653
H        0.06909993      -0.41779050      -2.82815246
H       -1.98480430      -3.21538849      -4.44961374
H       -1.38252324       0.58436602      -4.32699461
H       -2.42439022       0.61995442      -5.72814807
H       -1.43799301       0.54523188      -7.99376181
H        0.30070835       0.32458372      -8.16339745
H        0.59304757      -1.73121735      -9.15962770
H       -0.05879423      -6.79704053     -10.19207557
H       -0.63128325      -4.42278058      -6.59385339
H        0.07892417       2.19066313      -4.97443895
H        1.38611483       2.20672617      -7.72674338
H        2.12714531       1.56306127      -6.24598516
H        1.69915536       3.27248076      -6.35578466
H       -1.14712310       2.82459401      -7.71294973
H       -0.73446880       3.97462979      -6.43955339
H       -2.02511359       2.80881569      -6.17045136
C       -0.70891901      -7.09838749      -7.40302385
C       -0.94421827      -8.07752686      -6.73943033
Br      -1.32467728      -9.66071240      -5.66645574
C       -0.87880551       0.87880551       0.87880551
C       -0.43423914       1.95276103       1.60311646
S       -1.71162632       2.68332129       2.47317608
C       -2.87696287       1.56842737       1.85468755
C       -2.26596379       0.63726554       1.02965815
C       -4.22776426       1.68111268       2.28786342
C       -5.29868199       1.48996025       1.49775325
C       -5.40397551       1.22983270       0.02851864
N       -6.19292659       0.01424103      -0.22911169
C       -7.55547163       0.18956447       0.29936408
C       -7.55131059       0.46479907       1.78435415
C       -8.34271502      -0.20685054       2.64309717
C       -8.38724551      -0.05592663       4.06190001
S       -9.87351657      -0.41160154       4.88032444
C       -9.22395468      -0.02863881       6.41272120
C       -7.90715504       0.33111954       6.31433026
C       -7.41436116       0.29469351       4.98674225
C       -6.61701953       1.55417874       2.18134793
O       -6.90268556       2.44396329       2.97136414
C       -6.12776665      -0.38795580      -1.65122039
C       -6.65659824      -1.81468635      -1.84840645
C       -6.81003644       0.56322494      -2.64255905
H        0.57109978       2.34325657       1.67701477
H       -2.79708706      -0.18559951       0.56535548
H       -4.38331318       1.92761818       3.33887517
H       -4.41565493       1.13770283      -0.42820593
H       -5.86852867       2.10668893      -0.44263374
H       -8.07413917       1.01595518      -0.20357141
H       -8.14328008      -0.71532779       0.11015309
H       -9.02158521      -0.95001225       2.22622451
H       -9.83749385      -0.09007815       7.30049464
H       -6.39368059       0.53478035       4.71945628
H       -5.06487091      -0.43418324      -1.92583602
H       -7.74390788      -1.87333645      -1.73666904
H       -6.19738018      -2.50712661      -1.13447498
H       -6.41237247      -2.17336332      -2.85486061
H       -7.89042126       0.62247441      -2.47741685
H       -6.65520357       0.21399095      -3.66980212
H       -6.39612043       1.57440424      -2.58377540
C       -7.07412470       0.71010701       7.42609865
C       -6.37646178       1.02750901       8.35720467
Br      -5.24839985       1.54072121       9.86272435
C        0.87880551      -0.87880551       0.87880551
C        1.27815010      -0.56201452       2.14995201
S        2.26465565      -1.79092412       2.81254392
C        2.13535363      -2.76958361       1.39514054
C        1.37746587      -2.12576539       0.42965622
C        2.83198778      -4.00978158       1.35497100
C        2.34966350      -5.13584901       0.80088299
C        1.01343941      -5.44496170       0.20392573
N        1.16374620      -5.97520339      -1.16089365
C        1.94290783      -7.22337783      -1.12188547
C        3.31410896      -7.01163411      -0.52527927
C        4.43536492      -7.46345143      -1.11985469
C        5.77662648      -7.28252479      -0.66593238
S        6.95744506      -8.47777472      -1.09298031
C        8.21008907      -7.66348995      -0.26554195
C        7.75596817      -6.50084395       0.29579272
C        6.38098461      -6.26158093       0.05323138
C        3.28763006      -6.28869340       0.77622275
O        3.94669689      -6.61805875       1.75325735
C       -0.13972161      -6.08074959      -1.85243753
C        0.04855941      -6.30368826      -3.35874223
C       -1.10890489      -7.12674791      -1.28714069
H        1.05313402       0.32674280       2.72278033
H        1.20093554      -2.53446897      -0.55856147
H        3.82855085      -4.02326507       1.79799061
H        0.37163507      -4.56075278       0.19276397
H        0.50716068      -6.17148897       0.85393421
H        1.42745501      -7.99619862      -0.53713069
H        2.05737225      -7.61811397      -2.13738084
H        4.32285784      -8.02287183      -2.04793219
H        9.20866677      -8.07625550      -0.23701193
H        5.85309225      -5.38636025       0.40846471
H       -0.63214774      -5.10236658      -1.76536719
H        0.40949577      -7.31152569      -3.58711908
H        0.75507254      -5.57949999      -3.77879394
H       -0.90483132      -6.17210486      -3.88312500
H       -0.71976109      -8.14464876      -1.38940885
H       -2.06391365      -7.08665243      -1.82334639
H       -1.32863692      -6.94597393      -0.23058774
C        8.56547876      -5.58626993       1.05858166
C        9.24344388      -4.82031419       1.69741739
Br      10.33965614      -3.58182853       2.73036074
