177
Properties=species:S:1:pos:R:3 pbc="F F F"
C        0.00000000       0.00000000       0.00000000
C       -3.47081823       4.96234706      -3.74826382
C       -3.14630207       3.76128037      -4.62438256
C       -2.16272750       4.08220003      -5.77190739
C       -0.78546848       4.57844897      -5.30166171
C       -0.03694141       3.50748237      -4.55967596
C        0.46444951       3.70557527      -3.32597336
C        1.09063105       2.68225476      -2.48627645
C        2.47855893       2.50308689      -2.50109146
C        3.06500285       1.51407722      -1.70886822
C        2.26428641       0.70982226      -0.90337485
F        2.85031907      -0.23243032      -0.14995700
C        0.88233901       0.88233901      -0.88233901
C        0.29056547       1.86885255      -1.67274449
C        0.07309683       2.18650765      -5.25484425
O        1.08309264       1.49469792      -5.21453804
C       -1.14147721       1.77256246      -6.02255061
C       -1.39397391       0.45096685      -6.03057949
C       -2.55533301      -0.16538803      -6.66935009
C       -2.49923831      -0.55835637      -8.01166254
C       -3.61325894      -1.14788841      -8.61285286
C       -4.77678552      -1.34004196      -7.87292883
F       -5.83298298      -1.90809274      -8.47232576
C       -4.83962535      -0.94854032      -6.53753363
Br      -6.41914304      -1.20461215      -5.53045274
C       -3.72915625      -0.36029665      -5.93118935
C       -1.95791348       2.85375030      -6.67650118
H       -4.25320366       4.69971111      -3.02842963
H       -3.83220638       5.80287172      -4.34904450
H       -2.59772923       5.29208119      -3.17717815
H       -4.08450693       3.39431464      -5.05896846
H       -2.76525446       2.95419662      -3.98856029
H       -2.61435571       4.87460967      -6.38408060
H       -0.89552374       5.48420559      -4.69549062
H       -0.18907321       4.87603064      -6.17477798
H        0.36523254       4.67594969      -2.84436880
H        3.10557037       3.11310530      -3.14737823
H        4.13904333       1.35875563      -1.72378060
H       -0.78847786       2.00170598      -1.66177333
H       -0.73065419      -0.24796456      -5.52079749
H       -1.59029468      -0.41341260      -8.59202451
H       -3.58113396      -1.46158809      -9.65181742
H       -3.77245200      -0.05642645      -4.88779202
H       -1.42984054       3.16877354      -7.58669751
H       -2.93534621       2.48507770      -7.00662855
C        3.38913679      -5.31583613      -3.31309331
C        3.17115803      -4.14736468      -4.26315421
C        2.23012246      -4.47851099      -5.44299140
C        0.80738749      -4.88100760      -5.02102210
C        0.07979511      -3.73725822      -4.37275380
C       -0.49154413      -3.84595408      -3.15849994
C       -1.10440903      -2.75069354      -2.40405969
C       -2.47872063      -2.50419484      -2.49982181
C       -3.05138829      -1.44758717      -1.78897284
C       -2.25072391      -0.64309304      -0.98366657
F       -2.82349452       0.36484075      -0.30919198
C       -0.88233901      -0.88233901      -0.88233901
C       -0.30431552      -1.93662578      -1.59122120
C        0.07303542      -2.45037784      -5.13710631
O       -0.90039641      -1.70836141      -5.18357079
C        1.34392081      -2.13739656      -5.86016011
C        1.66485128      -0.83209309      -5.92033062
C        2.88680925      -0.30789322      -6.52754507
C        2.91759128       0.01707082      -7.88872996
C        4.08908214       0.51880852      -8.45959617
C        5.22304917       0.69144657      -7.67059710
F        6.33566067       1.17470790      -8.24161862
C        5.19941285       0.36725274      -6.31603355
Br       6.73842499       0.59697998      -5.24210253
C        4.03127673      -0.13310748      -5.73990571
C        2.13436754      -3.29012006      -6.41658548
H        4.14759931      -5.05511330      -2.56742309
H        3.73558811      -6.20327369      -3.85202427
H        2.47294696      -5.57191100      -2.77256607
H        4.14748821      -3.85027641      -4.66598797
H        2.80162881      -3.29048959      -3.68864167
H        2.66964503      -5.32300723      -5.99097235
H        0.84014058      -5.75836495      -4.36594811
H        0.24019210      -5.19374040      -5.90818712
H       -0.46680637      -4.79370157      -2.62504310
H       -3.10389672      -3.11525877      -3.14689839
H       -4.11385500      -1.24038408      -1.86734048
H        0.76450359      -2.12187051      -1.51763453
H        1.01438178      -0.07569871      -5.48086181
H        2.03212334      -0.11276217      -8.50767840
H        4.12466734       0.77928972      -9.51305243
H        4.00712543      -0.38410593      -4.68193307
H        1.63624385      -3.62555173      -7.33632262
H        3.14475320      -2.98783812      -6.71327513
C        0.81305964       7.01022915      -0.95737687
C        1.57995334       6.54682024       0.27249395
C        1.04557960       7.14302429       1.59393523
C       -0.41342275       6.77310522       1.90811423
C       -0.56649003       5.30028966       2.16343723
C       -1.45730706       4.54454412       1.49414698
C       -1.58133962       3.08854121       1.58928143
C       -2.48578422       2.50995934       2.48699373
C       -2.58558479       1.12046073       2.58190278
C       -1.78432771       0.31430381       1.77885200
F       -1.89896407      -1.01767615       1.88655784
C       -0.88233901       0.88233901       0.88233901
C       -0.77774473       2.27067759       0.78374019
C        0.36948699       4.71164478       3.17229093
O        0.02944982       3.84907356       3.97270486
C        1.75805920       5.26579674       3.14589831
C        2.73396734       4.38595604       3.43558373
C        4.16194120       4.69750049       3.41306976
C        4.79653996       5.19209934       4.55850848
C        6.16149953       5.48530302       4.52790201
C        6.88479923       5.28568571       3.35521488
F        8.19401831       5.57453985       3.35072850
C        6.25828785       4.79635673       2.21129908
Br       7.23647407       4.52731216       0.61585947
C        4.89500296       4.50030260       2.23643682
C        1.92581112       6.71590159       2.78224752
H        1.30594997       6.64570298      -1.86481593
H        0.77372938       8.10282633      -1.00938710
H       -0.21061875       6.62396741      -0.96305606
H        2.62864795       6.84579799       0.15162612
H        1.57342150       5.45134093       0.29958302
H        1.10476828       8.23685303       1.51224981
H       -1.07243358       7.11083736       1.10090154
H       -0.74059704       7.31579663       2.80534174
H       -2.12185371       5.00033487       0.76336246
H       -3.09632228       3.13602771       3.13370389
H       -3.27440438       0.66257727       3.28459791
H       -0.07056325       2.71610624       0.08833196
H        2.49767823       3.35206359       3.68779339
H        4.23534980       5.34565062       5.47801642
H        6.66664408       5.86485683       5.41088262
H        4.40244394       4.11457963       1.34677789
H        1.65044445       7.31594218       3.66013278
H        2.96990784       6.96420978       2.56205811
C       -2.52658123      -6.54580360       1.22057028
C       -2.80484185      -5.63604442       2.40815828
C       -2.06549978      -6.05996896       3.69691074
C       -0.53263853      -6.05073407       3.57654667
C       -0.00342385      -4.65898016       3.37466061
C        0.80711588      -4.34120871       2.34767356
C        1.26112933      -2.99142052       2.00661242
C        2.48094812      -2.50817006       2.49361910
C        2.89797502      -1.21400624       2.17596704
C        2.09726883      -0.40854323       1.37167146
F        2.51943577       0.83036805       1.07877803
C        0.88233901      -0.88233901       0.88233901
C        0.46004714      -2.17487661       1.19723875
C       -0.47454470      -3.63231839       4.35667503
O        0.25037548      -2.74740386       4.79454926
C       -1.90106329      -3.77208565       4.78261350
C       -2.54666760      -2.61543432       5.01880571
C       -3.95712083      -2.51620087       5.38954901
C       -4.33980041      -2.55853410       6.73533417
C       -5.68954891      -2.46132128       7.07993313
C       -6.64945313      -2.32467971       6.08087478
F       -7.93881854      -2.23325792       6.43681066
C       -6.27505402      -2.28471493       4.73970706
Br      -7.57605378      -2.10281349       3.37993785
C       -4.92778050      -2.37996334       4.38955362
C       -2.46920594      -5.16166859       4.87987534
H       -3.16185371      -6.26182851       0.37496228
H       -2.73788167      -7.59125685       1.46633467
H       -1.48666003      -6.46900030       0.88918984
H       -3.88460616      -5.65122482       2.60215750
H       -2.55687510      -4.60593661       2.12844095
H       -2.37757203      -7.08561185       3.93629473
H       -0.21137525      -6.72245272       2.77309501
H       -0.09353350      -6.45783843       4.49743048
H        1.12949788      -5.10869720       1.64735596
H        3.09819184      -3.12551748       3.14234457
H        3.83593742      -0.82575306       2.55988908
H       -0.49043027      -2.54481435       0.82061737
H       -2.03425494      -1.65855218       4.91788150
H       -3.59207586      -2.66124394       7.51914916
H       -5.99912024      -2.48792450       8.12029111
H       -4.63052963      -2.34552109       3.34392211
H       -2.09625851      -5.61226655       5.80962247
H       -3.56135893      -5.15190831       4.96581067
