185
Properties=species:S:1:pos:R:3 pbc="F F F"
C        0.00000000       0.00000000       0.00000000
C       -3.47081823       4.96234706      -3.74826382
C       -3.14630207       3.76128037      -4.62438256
C       -2.16272750       4.08220003      -5.77190739
C       -0.78546848       4.57844897      -5.30166171
C       -0.03694141       3.50748237      -4.55967596
C        0.46444951       3.70557527      -3.32597336
C        1.09063105       2.68225476      -2.48627645
C        2.47855893       2.50308689      -2.50109146
C        3.06500285       1.51407722      -1.70886822
C        2.26428641       0.70982226      -0.90337485
F        2.85031907      -0.23243032      -0.14995700
C        0.88233901       0.88233901      -0.88233901
C        0.29056547       1.86885255      -1.67274449
C        0.07309683       2.18650765      -5.25484425
O        1.08309264       1.49469792      -5.21453804
C       -1.14147721       1.77256246      -6.02255061
C       -1.39397391       0.45096685      -6.03057949
C       -2.55533301      -0.16538803      -6.66935009
C       -2.49923831      -0.55835637      -8.01166254
C       -3.61325894      -1.14788841      -8.61285286
C       -4.77678552      -1.34004196      -7.87292883
F       -5.83298298      -1.90809274      -8.47232576
C       -4.83962535      -0.94854032      -6.53753363
C       -3.72915625      -0.36029665      -5.93118935
C       -1.95791348       2.85375030      -6.67650118
H       -4.25320366       4.69971111      -3.02842963
H       -3.83220638       5.80287172      -4.34904450
H       -2.59772923       5.29208119      -3.17717815
H       -4.08450693       3.39431464      -5.05896846
H       -2.76525446       2.95419662      -3.98856029
H       -2.61435571       4.87460967      -6.38408060
H       -0.89552374       5.48420559      -4.69549062
H       -0.18907321       4.87603064      -6.17477798
H        0.36523254       4.67594969      -2.84436880
H        3.10557037       3.11310530      -3.14737823
H        4.13904333       1.35875563      -1.72378060
H       -0.78847786       2.00170598      -1.66177333
H       -0.73065419      -0.24796456      -5.52079749
H       -1.59029468      -0.41341260      -8.59202451
H       -3.58113396      -1.46158809      -9.65181742
H       -3.77245200      -0.05642645      -4.88779202
H       -1.42984054       3.16877354      -7.58669751
H       -2.93534621       2.48507770      -7.00662855
C       -6.04263626      -1.14357277      -5.77050879
C       -7.05015789      -1.30691245      -5.12812549
Br      -8.67923516      -1.57101889      -4.08944602
C       -6.98537103       0.42444845       1.32112993
C       -6.39347100      -0.81738106       1.97149121
C       -6.93927906      -2.13960374       1.38750288
C       -6.65023173      -2.33432469      -0.11008579
C       -5.17798004      -2.47857680      -0.37366008
C       -4.52876122      -1.70404372      -1.26319321
C       -3.08147560      -1.69179758      -1.48588909
C       -2.50977709      -2.48863335      -2.48432685
C       -1.12707191      -2.48223106      -2.67864533
C       -0.32105055      -1.67885470      -1.87757826
F        1.00419188      -1.68816224      -2.08387539
C       -0.88233901      -0.88233901      -0.88233901
C       -2.26379804      -0.88529396      -0.68307051
C       -4.46396077      -3.50259863       0.45211067
O       -3.57730313      -4.21918280       0.00415733
C       -4.92290267      -3.60246125       1.87172806
C       -3.96204052      -3.89317488       2.76764297
C       -4.17650288      -3.98290156       4.21077539
C       -4.55281980      -5.19742414       4.79617607
C       -4.75382413      -5.27383237       6.17595099
C       -4.58054825      -4.13873271       6.96317960
F       -4.77935105      -4.23730139       8.28540239
C       -4.20883101      -2.92660006       6.38606310
C       -4.00522298      -2.84465961       5.00814614
C       -6.37844253      -3.34974282       2.15584736
H       -6.64668802       1.32134931       1.85040163
H       -8.07920137       0.40439636       1.35509516
H       -6.67080369       0.52158055       0.27769302
H       -6.62749167      -0.78417131       3.04288682
H       -5.30147873      -0.76939930       1.89337558
H       -8.02952228      -2.13646809       1.52165581
H       -7.08274325      -1.51163351      -0.68979572
H       -7.15567949      -3.24373504      -0.46232088
H       -5.07432662      -0.96512827      -1.84609614
H       -3.13347413      -3.13624277      -3.09633698
H       -0.67329556      -3.10684358      -3.44144042
H       -2.70346034      -0.26825864       0.09671752
H       -2.93266235      -4.05889149       2.44937510
H       -4.68532464      -6.08763662       4.18464403
H       -5.04112031      -6.21096672       6.64299166
H       -3.71135349      -1.90125781       4.55369772
H       -6.93869674      -4.24709669       1.86016292
H       -6.56865262      -3.21390335       3.22619593
C       -4.03150846      -1.75025761       7.19746631
C       -3.88300083      -0.76507080       7.87701649
Br      -3.64287656       0.82789293       8.97579166
C        0.62890194       7.00280176      -1.13410717
C        1.43390496       6.58540491       0.08786091
C        0.91588920       7.19977581       1.40749331
C       -0.52669633       6.80434150       1.76360437
C       -0.63985771       5.33474046       2.05561874
C       -1.52785996       4.54378181       1.42435638
C       -1.61601082       3.08793681       1.55521463
C       -2.48631588       2.50997466       2.48644674
C       -2.55179027       1.12114162       2.61501640
C       -1.75046043       0.31494579       1.81207730
F       -1.83180363      -1.01643806       1.95248018
C       -0.88233901       0.88233901       0.88233901
C       -0.81212998       2.27003565       0.74999688
C        0.33204105       4.79088386       3.05560592
O        0.03021601       3.93958661       3.88295800
C        1.70647725       5.37551745       2.98459566
C        2.70876636       4.52489055       3.27144825
C        4.12828103       4.86802362       3.20888645
C        4.77699833       5.40319149       4.32787470
C        6.13377285       5.72638215       4.25909620
C        6.83480744       5.51609995       3.07480885
F        8.13656149       5.83428759       3.03352395
C        6.19408585       4.98641719       1.95703662
C        4.83892746       4.66028897       2.02037494
C        1.83239253       6.82024668       2.58448385
H        1.10945537       6.62862296      -2.04423051
H        0.56315295       8.09273620      -1.20987340
H       -0.38543813       6.59347560      -1.10738362
H        2.47240647       6.90513196      -0.06394933
H        1.45331927       5.49097712       0.13984461
H        0.94790850       8.29248152       1.29976155
H       -1.21141485       7.10833846       0.96441917
H       -0.84597081       7.36010144       2.65566316
H       -2.21911398       4.96741778       0.69901927
H       -3.09639556       3.13687132       3.13278701
H       -3.21378132       0.66417856       3.34361968
H       -0.13133397       2.71513388       0.02853359
H        2.50220719       3.49203033       3.55235560
H        4.23333187       5.56524120       5.25640790
H        6.64983225       6.13757070       5.12135692
H        4.33543873       4.24306449       1.15128781
H        1.56313538       7.43404941       3.45471647
H        2.86522552       7.08693016       2.33465540
C        6.91599020       4.77035142       0.72993854
C        7.52058509       4.58939634      -0.29775610
Br       8.49816389       4.29680728      -1.95945142
C        4.94090205      -3.77323947      -3.47434887
C        3.73821583      -4.64482372      -3.14367870
C        4.05865597      -5.79037960      -2.15765566
C        4.56038189      -5.31753434      -0.78327403
C        3.49384369      -4.57015939      -0.03378617
C        3.69707572      -3.33557151       0.46335092
C        2.67810919      -2.49098991       1.09006316
C        2.50301998      -2.50116409       2.47855322
C        1.51810547      -1.70427525       3.06556758
C        0.71386467      -0.89877142       2.26484743
F       -0.22440925      -0.14082767       2.85142733
C        0.88233901      -0.88233901       0.88233901
C        1.86474697      -1.67741846       0.28999707
C        2.17114938      -5.26107368       0.08222567
O        1.48246385      -5.21572383       1.09414092
C        1.75132893      -6.03113978      -1.12883286
C        0.42897148      -6.03599208      -1.37739114
C       -0.19271717      -6.67636504      -2.53501883
C       -0.58948920      -8.01733287      -2.47377581
C       -1.18410344      -8.62006538      -3.58425643
C       -1.37751953      -7.88302176      -4.74940087
F       -1.95047572      -8.48385350      -5.80212774
C       -0.98225470      -6.54898674      -4.81736408
C       -0.38892410      -5.94110700      -3.71044645
C        2.82814726      -6.69071171      -1.94652097
H        4.67807636      -3.05494793      -4.25808720
H        5.77856781      -4.37758032      -3.83643828
H        5.27491619      -3.20055321      -2.60393929
H        3.36718117      -5.08109363      -4.07949864
H        2.93415281      -4.00548268      -2.76213304
H        4.84790547      -6.40623717      -2.60980808
H        5.46759825      -4.71438368      -0.89780945
H        4.85714700      -6.18976096      -0.18517255
H        4.66857274      -2.85714606       0.35983224
H        3.11298146      -3.14740023       3.10567219
H        1.36593005      -1.71554682       4.14010270
H        1.99442790      -1.67003619      -0.78946264
H       -0.26647518      -5.52217571      -0.71352178
H       -0.44356600      -8.59542932      -1.56354608
H       -1.50078066      -9.65799430      -3.54811826
H       -0.08209632      -4.89874924      -3.75773934
H        3.14204116      -7.60027211      -1.41668276
H        2.45559850      -7.02263507      -2.92187352
C       -1.17858668      -5.78495088      -6.02206444
C       -1.34301470      -5.14507085      -7.03100100
Br      -1.60888092      -4.11043896      -8.66236607
