129
Properties=species:S:1:pos:R:3 pbc="F F F"
C        0.00000000       0.00000000       0.00000000
C        0.87948112       0.87948112      -0.87948112
C        0.51237019       2.10502598      -1.36857471
S        1.76374012       2.79567122      -2.30326040
C        2.80217983       1.42958119      -2.07112951
C        2.18678130       0.48922115      -1.26174097
C        4.09520048       1.46401488      -2.66457391
C        4.72244736       0.40962642      -3.22007975
C        4.24378771      -1.00674655      -3.37058354
C        4.58546124      -1.61283714      -4.73254100
C        6.05932190      -1.42294254      -5.07215877
C        6.40837675       0.03891442      -5.05530666
C        6.98784071       0.64607915      -6.10843592
C        7.27782776       2.03851619      -6.22316308
S        8.65495035       2.52589610      -7.15215208
C        8.36890552       4.18560038      -6.86331221
C        7.24234723       4.36832725      -6.10775074
Br       6.56591238       6.04504054      -5.57224265
C        6.60228516       3.15580762      -5.75480358
C        6.07110090       0.73289176      -3.77950250
O        6.84705690       1.49272653      -3.21253150
H       -0.41758068       2.63715476      -1.22147218
H        2.66287857      -0.43211520      -0.95224337
H        4.58842467       2.43770435      -2.67995255
H        3.16097575      -1.08918230      -3.23936010
H        4.70937727      -1.61262522      -2.58294520
H        4.34477818      -2.68311819      -4.72536276
H        3.96105012      -1.15158333      -5.50882809
H        6.68612372      -1.95498128      -4.34560183
H        6.26050879      -1.87203406      -6.05203667
H        7.25002419       0.03384106      -6.97039059
H        9.03596007       4.93526322      -7.26521386
H        5.69238161       3.10258988      -5.17149343
C       -0.87948112      -0.87948112      -0.87948112
C       -2.18255995      -1.19914528      -0.60426565
S       -2.84420671      -2.19365438      -1.82481065
C       -1.36352493      -2.21707131      -2.72229429
C       -0.40519171      -1.44247116      -2.09008055
C       -1.33412449      -2.94466636      -3.94499842
C       -0.29076936      -3.66964346      -4.39174071
C        1.04476044      -3.90707092      -3.74531421
C        1.52623818      -5.35253150      -3.87887178
C        1.44840673      -5.83376698      -5.32317788
C        0.03999144      -5.70944993      -5.83313934
C       -0.61972895      -6.75443771      -6.36818912
C       -1.98012107      -6.76057953      -6.79880642
S       -2.42755587      -7.78387906      -8.12156360
C       -4.06491678      -7.29992271      -8.05297862
C       -4.27422855      -6.40884627      -7.03535040
Br      -5.94002742      -5.63573444      -6.60743371
C       -3.10023779      -6.11006256      -6.30259601
C       -0.53755308      -4.34084344      -5.70509864
O       -1.14767632      -3.79069505      -6.61394356
H       -2.78551337      -0.89653999       0.24100710
H        0.58800781      -1.28202377      -2.48899078
H       -2.24903783      -2.91726749      -4.53977624
H        1.03230942      -3.66474047      -2.67872250
H        1.77838913      -3.24108514      -4.21700124
H        2.56106262      -5.42591352      -3.52217185
H        0.92093484      -6.00407239      -3.23515732
H        2.11838255      -5.23875934      -5.95636747
H        1.80321977      -6.87004730      -5.37368386
H       -0.08433671      -7.69730104      -6.47261809
H       -4.78404858      -7.69654148      -8.75584710
H       -3.07377346      -5.43713349      -5.45555798
C       -0.87948112       0.87948112       0.87948112
C       -1.89718731       0.41756396       1.67121960
S       -2.64767048       1.69622914       2.51877212
C       -1.61469853       2.88662165       1.80157034
C       -0.69986525       2.28286724       0.95501092
C       -1.79328125       4.24539631       2.18511171
C       -1.68658082       5.30493389       1.36063882
C       -1.38416036       5.33440699      -0.11094266
C       -2.24028100       6.34307251      -0.87818841
C       -2.20925336       7.71615884      -0.21687407
C       -2.68229261       7.61416156       1.20614367
C       -3.68725629       8.37508269       1.68001680
C       -4.26390680       8.29294628       2.98265394
S       -4.89381019       9.73508138       3.70410696
C       -5.38190905       8.91460527       5.12130379
C       -5.10252567       7.57725402       5.03864553
Br      -5.48858853       6.31208514       6.38252189
C       -4.48520123       7.20869200       3.81900313
C       -1.93542575       6.61964034       2.02842906
O       -1.52992420       6.86402473       3.15836600
H       -2.23575329      -0.60068115       1.80597411
H        0.06915588       2.82844354       0.42371907
H       -2.06016784       4.41621027       3.22970346
H       -1.53323263       4.35719810      -0.57927718
H       -0.32556544       5.59348869      -0.23935687
H       -1.87279811       6.42297291      -1.90874828
H       -3.27475293       5.98013653      -0.93659459
H       -1.18938689       8.12043659      -0.23307921
H       -2.83223316       8.40637424      -0.79809600
H       -4.12522266       9.11632004       1.01271314
H       -5.84993300       9.45318940       5.93331475
H       -4.20297896       6.19432736       3.56915861
C        0.87948112      -0.87948112       0.87948112
C        1.20359637      -0.60150183       2.18087268
S        2.19652940      -1.82298212       2.84316022
C        2.21323926      -2.72469321       1.36495805
C        1.43771955      -2.09299559       0.40702827
C        2.93730332      -3.94952453       1.33696141
C        3.65807139      -4.40124732       0.29283483
C        3.89354635      -3.75925610      -1.04517775
C        5.33726014      -3.89824889      -1.53034393
C        5.81464546      -5.34368302      -1.44979034
C        5.69286995      -5.84932442      -0.03959654
C        6.73820565      -6.38546287       0.61868725
C        6.74697578      -6.81226426       1.98026699
S        7.76780649      -8.13664026       2.42855179
C        7.28866964      -8.06207995       4.06706851
C        6.40105608      -7.04135489       4.27601425
Br       5.63385794      -6.60656933       5.94276830
C        6.10102323      -6.31106786       3.10080527
C        4.32626533      -5.71579498       0.54143486
O        3.77528518      -6.62136186       1.15566789
H        0.90507539       0.24631598       2.78228685
H        1.27334641      -2.49424578      -0.58458545
H        2.91081320      -4.54164457       2.25362379
H        3.65425569      -2.69195366      -1.03505580
H        3.22416678      -4.23112451      -1.77559404
H        5.40872427      -3.54467224      -2.56637377
H        5.99231695      -3.25467489      -0.92869697
H        5.21596850      -5.97707389      -2.11629813
H        6.84977365      -5.39811309      -1.80737535
H        7.67925598      -6.49406015       0.08093971
H        7.68533676      -8.76403805       4.78706234
H        5.43040941      -5.46221126       3.07384426
