158
Properties=species:S:1:pos:R:3 pbc="F F F"
C        1.78938514       1.78938514      -1.78938514
C        1.42227421       3.01493000      -2.27847874
S        2.67364414       3.70557525      -3.21316442
C        3.71208385       2.33948521      -2.98103354
C        3.09668533       1.39912517      -2.17164499
C        5.00510450       2.37391890      -3.57447793
C        5.63235138       1.31953045      -4.12998378
C        5.15369173      -0.09684253      -4.28048756
C        5.49536527      -0.70293312      -5.64244502
C        6.96922593      -0.51303852      -5.98206280
C        7.31828078       0.94881844      -5.96521069
C        7.89774474       1.55598317      -7.01833994
C        8.18773178       2.94842022      -7.13306711
S        9.56485437       3.43580012      -8.06205611
C        9.27880954       5.09550440      -7.77321624
C        8.15225126       5.27823127      -7.01765476
C        7.51218918       4.06571165      -6.66470761
C        6.98100492       1.64279578      -4.68940653
O        7.75696092       2.40263056      -4.12243552
H        0.49232334       3.54705878      -2.13137621
H        3.57278259       0.47778883      -1.86214739
H        5.49832870       3.34760837      -3.58985657
H        4.07087978      -0.17927828      -4.14926412
H        5.61928130      -0.70272119      -3.49284922
H        5.25468220      -1.77321417      -5.63526678
H        4.87095414      -0.24167931      -6.41873211
H        7.59602775      -1.04507726      -5.25550586
H        7.17041281      -0.96213004      -6.96194070
H        8.15992821       0.94374509      -7.88029462
H        9.94586409       5.84516724      -8.17511789
H        6.60228564       4.01249390      -6.08139746
C        7.63568518       6.55866974      -6.60870878
C        7.20306109       7.63103696      -6.26621652
Br       6.50354453       9.36496406      -5.71243551
C       -1.78938514      -1.78938514      -1.78938514
C       -2.88546484      -1.34812604      -2.48209207
S       -3.60907976      -2.61837859      -3.36492546
C       -2.45673212      -3.77923430      -2.79663618
C       -1.52682494      -3.16982241      -1.97080814
C       -2.57447252      -5.11996693      -3.25906189
C       -2.34544891      -6.21992239      -2.51649431
C       -1.94300350      -6.32196623      -1.07236703
C       -2.67975214      -7.43271980      -0.32240524
C       -2.60665054      -8.75595548      -1.07564419
C       -3.18028959      -8.59630413      -2.45571619
C       -4.16480434      -9.39188656      -2.91537695
C       -4.83221646      -9.26663239      -4.17037025
S       -5.41690095     -10.69948392      -4.94632574
C       -6.05061426      -9.82582656      -6.27108936
C       -5.85148593      -8.48056956      -6.11608180
C       -5.17770878      -8.14905975      -4.91583991
C       -2.55515011      -7.50353470      -3.25452243
O       -2.21229173      -7.64794877      -4.42178651
H       -3.29612895      -0.34860911      -2.52602027
H       -0.69066977      -3.69470522      -1.52734382
H       -2.90000181      -5.24197242      -4.29381941
H       -2.12163019      -5.38867174      -0.53056369
H       -0.86387990      -6.51651574      -1.02901368
H       -2.23913928      -7.55266458       0.67506905
H       -3.72880283      -7.14495570      -0.17424841
H       -1.56448332      -9.09059304      -1.15137998
H       -3.14398740      -9.52209634      -0.50413973
H       -4.50887544     -10.20177394      -2.27331853
H       -6.53742125     -10.34233652      -7.08639145
H       -4.94401232      -7.13579121      -4.61637347
C       -6.27554997      -7.47353489      -7.05397884
C       -6.63070360      -6.63014336      -7.83946762
Br      -7.20495699      -5.26645058      -9.10953653
C       -1.78938514       1.78938514       1.78938514
C       -2.79118350       1.32484134       2.59965812
S       -3.54714019       2.60465186       3.44059177
C       -2.53836957       3.79869023       2.69554280
C       -1.62662116       3.19575096       1.84508337
C       -2.72933180       5.15987295       3.06429659
C       -2.64637049       6.21013846       2.22535666
C       -2.36276923       6.22475670       0.74981083
C       -3.24111702       7.21284524      -0.01908509
C       -3.21921047       8.59447476       0.62456498
C       -3.67309246       8.50459584       2.05462161
C       -4.68160627       9.25883166       2.53162992
C       -5.24083962       9.18599100       3.84238848
S       -5.87988178      10.62915659       4.55367224
C       -6.33979739       9.82065060       5.98708220
C       -6.04455996       8.48595750       5.91761984
C       -5.43791537       8.10973037       4.69496269
C       -2.90347211       7.52998028       2.87975484
O       -2.48700199       7.79370139       4.00132362
H       -3.11511952       0.30423065       2.75140817
H       -0.87127149       3.74412894       1.29731837
H       -2.98527893       5.34054836       4.10996635
H       -2.50530108       5.23990936       0.29565518
H       -1.30922750       6.49540647       0.60477535
H       -2.88758828       7.28427984      -1.05513331
H       -4.27156039       6.83629396      -0.05984741
H       -2.20482646       9.01123403       0.59039585
H       -3.85809682       9.26943357       0.04269309
H       -5.13723067       9.98602759       1.86070965
H       -6.80441404      10.36357865       6.79815653
H       -5.14601892       7.09589157       4.45426651
C       -6.31427110       7.52925911       6.95953350
C       -6.54015419       6.72802420       7.83213619
Br      -6.90538803       5.43249512       9.24306094
C        1.78938514      -1.78938514       1.78938514
C        1.62664809      -3.13992078       1.94911408
S        2.80885971      -3.78310207       3.00042203
C        3.53469148      -2.23331939       3.26459173
C        2.88113139      -1.26307870       2.52324539
C        4.67041898      -2.16376842       4.11931393
C        4.92922231      -1.16627370       4.98636960
C        4.12237941       0.06652474       5.28148210
C        4.06185368       0.39984927       6.77287277
C        5.45238413       0.41147080       7.39733688
C        6.12107011      -0.91893186       7.19230794
C        6.61994523      -1.63237674       8.21974589
C        7.19224775      -2.93707212       8.13989923
S        8.44965939      -3.36147586       9.25157536
C        8.60566220      -4.93588002       8.60598797
C        7.70816628      -5.14582331       7.59414770
C        6.88554085      -4.02336611       7.33370148
C        6.18994434      -1.35506248       5.76820042
O        7.20854782      -1.81085787       5.26262132
H        0.88489463      -3.78607593       1.49978778
H        3.18420466      -0.22427978       2.50423437
H        5.36031322      -3.00811720       4.06736323
H        3.09204521      -0.02344710       4.92537331
H        4.57468240       0.91016644       4.74489337
H        3.59008881       1.38104423       6.90769024
H        3.42690321      -0.33201421       7.28908952
H        6.06443755       1.20019270       6.94221150
H        5.36318853       0.65556379       8.46259873
H        6.57369862      -1.19428938       9.21597991
H        9.34009406      -5.62177904       9.00427613
H        6.11013854      -4.00698270       6.57905576
C        7.57964310      -6.37248974       6.85093087
C        7.47200493      -7.39982287       6.22848677
Br       7.29796312      -9.06093366       5.22204731
C       -0.00445707       0.01189536      -1.78238275
H       -0.66409135       0.67374010      -2.43557963
H        0.65740317      -0.63156657      -2.45157240
C       -0.90989263      -0.90692880      -0.91072765
C        0.90977584       0.90977584      -0.90977584
C       -0.00465871       1.77757030       0.00794375
H       -0.66225468       2.44313916      -0.64384735
H        0.64322798       2.43503045       0.67728295
C       -1.78241447       0.00034974      -0.00472694
H       -2.45427497      -0.65498947       0.64260836
H       -2.43311707       0.67328779      -0.65473579
C       -0.91132561       0.90220522       0.91563759
C       -0.01476271      -0.02253852       1.78660255
H       -0.67934791      -0.69751639       2.42135241
H        0.63392994       0.61504881       2.47327442
C        0.01484550      -1.77751727      -0.01636693
H        0.67870853      -2.42144646      -0.68295456
H       -0.62264859      -2.45592969       0.64226336
C        1.78714474       0.01002794       0.00389507
H        2.44202412       0.67113390       0.66197326
H        2.45385902      -0.65136977      -0.64189061
C        0.91606151      -0.90478549       0.90901405
