189
Properties=species:S:1:pos:R:3 pbc="F F F"
C        0.00000000       0.00000000       0.00000000
C        1.57151444       1.66439994      -9.34963782
C        0.82233535       1.31747610      -8.06922652
C        1.03211428      -0.13098108      -7.52171612
C        0.11067315      -0.26946515      -6.29032331
C        0.50052558      -1.13580293      -8.57608598
C        2.56132634      -0.43585536      -7.23273313
C        3.31265592       0.56873331      -6.33187839
C        2.96350354       0.42406350      -4.87738839
C        2.56334854       1.48328848      -4.14704848
C        2.04069908       1.44095182      -2.82143902
S        2.30460504       2.79011518      -1.77320395
C        1.38549207       2.09671366      -0.51045230
C        0.87892693       0.87892693      -0.87892693
C        1.23712555       0.49967475      -2.19485907
C        3.10253867      -0.95853574      -4.32957319
O        3.57139053      -1.18641238      -3.22059631
C        2.65869911      -2.05848660      -5.24058348
C        2.07708731      -3.09992892      -4.61447476
C        1.52806945      -4.23088517      -5.28131110
S       -0.03477223      -4.79412087      -4.80897724
C       -0.02295696      -6.04854231      -5.96895987
C        1.14975327      -6.05589423      -6.67651613
Br       1.56945057      -7.28312905      -8.04439177
C        2.05010075      -5.03602610      -6.28111084
C        2.87512388      -1.85819739      -6.71382878
H        1.33139051       2.68978427      -9.64956625
H        1.28477094       1.00727852     -10.17540256
H        2.65482286       1.60872932      -9.21702458
H       -0.24783080       1.47505241      -8.26124962
H        1.08775481       2.05001792      -7.29770766
H        0.34032068       0.46468901      -5.51641218
H        0.15057489      -1.26828277      -5.85110148
H       -0.93654164      -0.10027410      -6.57053973
H        1.16823774      -1.20641413      -9.44079794
H       -0.48873612      -0.83753863      -8.94214795
H        0.38979324      -2.14239352      -8.15850783
H        3.05918890      -0.37959472      -8.21206528
H        3.15879954       1.59338222      -6.68476983
H        4.39268919       0.39223603      -6.43439302
H        2.56994541       2.46389409      -4.62052894
H        1.25938241       2.61850570       0.42713813
H        0.91499618      -0.41942658      -2.66809022
H        1.95847985      -3.07367553      -3.53031644
H       -0.86963558      -6.71427545      -6.06346441
H        3.03443297      -4.88829913      -6.70820888
H        3.93963890      -2.05839382      -6.90507201
H        2.33693541      -2.59108547      -7.31631292
C       -5.81973360       0.85372629      -7.61954490
C       -4.64924414       1.12223523      -6.68202906
C       -4.97481769       1.94786090      -5.39589254
C       -3.63156334       2.16614359      -4.66611155
C       -5.46743274       3.35342153      -5.82679742
C       -6.09276656       1.24907281      -4.51451036
C       -5.85408151      -0.22788757      -4.13129854
C       -4.83134276      -0.39121595      -3.04239672
C       -3.78110756      -1.22223736      -3.19034059
C       -2.66263780      -1.32766786      -2.31278425
S       -1.85647614      -2.84951903      -2.16192900
C       -0.67590323      -2.21474132      -1.10201348
C       -0.87892693      -0.87892693      -0.87892693
C       -2.00061652      -0.36110802      -1.56993483
C       -5.08106405       0.42244504      -1.81495711
O       -4.90575305      -0.01572714      -0.68409428
C       -5.59302213       1.80706759      -2.05484145
C       -5.13454684       2.72892532      -1.18601163
C       -5.44106755       4.11691978      -1.25434760
S       -4.15713124       5.25912796      -1.08208087
C       -5.20692333       6.59215598      -1.28269324
C       -6.50260657       6.17995602      -1.44772462
Br      -7.97249202       7.33442015      -1.69264142
C       -6.65191129       4.77150835      -1.41478255
C       -6.50588894       2.00653535      -3.23140167
H       -5.47040238       0.29150404      -8.49184268
H       -6.26377445       1.78315792      -7.98683549
H       -6.59989809       0.25824906      -7.13892773
H       -3.87917556       1.65098585      -7.26028152
H       -4.19438744       0.16379626      -6.40488921
H       -3.14729309       1.22536844      -4.39949722
H       -3.74138222       2.77329227      -3.76530365
H       -2.92396894       2.70162671      -5.31138177
H       -6.48050572       3.31819649      -6.24031232
H       -4.81030224       3.78507160      -6.59064255
H       -5.47551198       4.05636109      -4.98675666
H       -6.99720028       1.24624244      -5.14070162
H       -5.60062889      -0.81998907      -5.01633363
H       -6.79982983      -0.65292752      -3.76656088
H       -3.73182794      -1.82992185      -4.09261866
H        0.10451093      -2.84865812      -0.70660279
H       -2.30757642       0.67660615      -1.53268955
H       -4.43837613       2.42589339      -0.40263802
H       -4.81981842       7.60145464      -1.26118959
H       -7.59831847       4.25332204      -1.50934628
H       -7.49608184       1.63678540      -2.92702065
H       -6.65758097       3.06100479      -3.46558669
C       -0.91361713       2.39330275       9.27863233
C       -0.24770142       1.99328426       7.96805229
C       -0.36682556       0.48722744       7.56879632
C        0.45460350       0.31332101       6.27281380
C        0.34507840      -0.36498194       8.65086897
C       -1.87980966       0.02665666       7.45173779
C       -2.79649478       0.87420329       6.54256954
C       -2.56125572       0.62418577       5.07951394
C       -2.32630120       1.64060765       4.22677664
C       -1.91752558       1.51905322       2.86651112
S       -2.39569294       2.73632987       1.73590135
C       -1.52720463       2.00886257       0.45659083
C       -0.87892693       0.87892693       0.87892693
C       -1.08586533       0.59549583       2.25029821
C       -2.61641363      -0.81051254       4.66767502
O       -3.15513142      -1.18075597       3.63119902
C       -1.99491003      -1.77804863       5.62393459
C       -1.37397566      -2.81993803       5.03759553
C       -0.66616420      -3.83211973       5.74445090
S        0.89636584      -4.30115852       5.17760850
C        1.10173632      -5.43760849       6.43680541
C       -0.00013903      -5.47903102       7.24926715
Br      -0.18407775      -6.60396939       8.75060492
C       -1.02274886      -4.58168454       6.85412116
C       -2.10210749      -1.45972793       7.08837571
H       -0.74592462       3.45909122       9.46572519
H       -0.49678333       1.84354635      10.12712234
H       -1.99428789       2.23279999       9.25348889
H        0.81546557       2.25931355       8.04462325
H       -0.64581006       2.62476602       7.16490431
H        0.09162057       0.94924339       5.46379905
H        0.47108021      -0.72202332       5.92649713
H        1.50147406       0.59717719       6.43802086
H       -0.23648907      -0.41112843       9.57726091
H        1.32971465       0.04998758       8.89560026
H        0.51355235      -1.39309604       8.31255593
H       -2.29498259       0.13166270       8.46501417
H       -2.70976250       1.93683728       6.79035180
H       -3.84243111       0.61619095       6.76069618
H       -2.38425512       2.65711627       4.61299707
H       -1.53142037       2.44927914      -0.52994953
H       -0.63956978      -0.24415505       2.76824509
H       -1.35170829      -2.88543588       3.94884834
H        2.01210318      -6.01651709       6.50817365
H       -1.97635703      -4.47944995       7.35743564
H       -3.12282383      -1.73159384       7.39508711
H       -1.44789510      -2.08403286       7.69830063
C        7.21986398       0.93197754       6.29766578
C        5.95047714       1.26546162       5.52402246
C        6.15293415       1.79964403       4.06955920
C        4.74758839       2.15019170       3.53413461
C        6.93497560       3.13645763       4.14229065
C        6.95810046       0.77065620       3.17075985
C        6.41982241      -0.67594464       3.11750057
C        5.19637060      -0.81293025       2.25565459
C        4.07498496      -1.39543685       2.72326369
C        2.80805359      -1.42463383       2.07040250
S        1.75688186      -2.77021715       2.34082516
C        0.51261125      -2.09934561       1.38070117
C        0.87892693      -0.87892693       0.87892693
C        2.17901198      -0.48035577       1.27229163
C        5.33456819      -0.26663960       0.87236832
O        4.88066083      -0.83734904      -0.11243540
C        6.09579298       1.01591267       0.76091569
C        5.63298465       1.85827777      -0.18307373
C        6.16314456       3.15585434      -0.42879485
S        5.06761137       4.47882361      -0.60870361
C        6.33432995       5.60312476      -0.83374460
C        7.55568361       4.98411347      -0.80119497
Br       9.20952419       5.86273242      -1.01607849
C        7.47066081       3.58586238      -0.58961294
C        7.23514781       1.22266466       1.71827212
H        6.95766785       0.59187140       7.30494458
H        7.86723738       1.80657335       6.40678799
H        7.79015347       0.13074928       5.82117256
H        5.39790597       2.01560977       6.10617502
H        5.30512389       0.37911306       5.50946956
H        4.07853416       1.28820797       3.53109569
H        4.77943023       2.57474219       2.52870557
H        4.26933252       2.90564361       4.17003508
H        7.98943956       2.97574482       4.38892680
H        6.51163785       3.80053948       4.90477482
H        6.89496213       3.68276440       3.19370981
H        7.95278409       0.69568080       3.63455618
H        6.24820306      -1.06116978       4.12757875
H        7.19957419      -1.32505768       2.69468638
H        4.10199595      -1.83175777       3.72061472
H       -0.41914075      -2.62825520       1.24163553
H        2.63399867       0.46098710       0.99064825
H        4.76175436       1.57244680      -0.77418681
H        6.11528772       6.65109837      -0.98463597
H        8.32340491       2.91923625      -0.54982594
H        8.07818497       0.62826823       1.33640036
H        7.59383857       2.25275783       1.72108213
