198
Properties=species:S:1:pos:R:3 pbc="F F F"
O        4.58322051       7.37888392      -0.40386726
C        5.32955846       6.40365464      -0.33260536
C        4.93140363       5.06207140      -0.88133789
C        3.73863781       4.99134334      -1.50322316
C        3.16205954       3.76808233      -2.05883386
C        3.40380576       3.41670653      -3.39225441
C        2.83754437       2.25604559      -3.92294444
C        2.03391145       1.45075013      -3.12085977
F        1.49862280       0.34290930      -3.65415371
C        1.79206075       1.79206075      -1.79206075
C        2.35557602       2.95122805      -1.25630480
C        5.90763177       3.92679171      -0.67614957
H        5.71664639       3.11609466      -1.38750194
C        5.84647100       3.42447664       0.77191692
C        6.87145769       4.28054943       1.51499690
C        7.45873084       5.19892605       0.43492843
H        8.51783056       5.40521428       0.62339414
N        7.27153057       4.46649158      -0.83136316
C        8.27680460       3.42691352      -1.03823379
C        6.66793739       6.48282343       0.34555139
C        7.04548220       7.68946044       0.81032704
C        8.29623074       7.94406019       1.52295217
C        9.44630367       8.31542202       0.81581897
C       10.64018984       8.55516879       1.49885204
C       10.68153778       8.42262680       2.88383796
F       11.83994758       8.65696918       3.51744709
C        9.54154551       8.05257663       3.59402527
Br       9.59569173       7.86958021       5.47535669
C        8.34520530       7.81185404       2.91644431
H        3.10800755       5.87384437      -1.60532272
H        4.02695507       4.04690357      -4.02407985
H        3.01310756       1.97704859      -4.95744812
H        2.16061057       3.22593935      -0.22207629
H        4.84983639       3.51274434       1.21827499
H        6.13993679       2.36929885       0.82816568
H        6.41007669       4.82967489       2.34330929
H        7.64939771       3.63521456       1.94020258
H        9.27030116       3.87978282      -1.13093986
H        8.08405652       2.90015768      -1.97930105
H        8.31852941       2.68310068      -0.23599016
H        6.40543951       8.56252440       0.68927404
H        9.41730288       8.42124674      -0.26704268
H       11.53726426       8.84613329       0.96089977
H        7.45165518       7.52905731       3.46830055
O       -1.24687540      -3.08516970      -8.03392660
C       -0.81170508      -3.96344415      -7.29066922
C       -1.09716830      -3.96277707      -5.81486756
C       -1.89756596      -2.98282742      -5.35281094
C       -2.25060314      -2.79133910      -3.94703349
C       -3.39579052      -3.39869597      -3.41828020
C       -3.73770804      -3.19951478      -2.07931159
C       -2.93516493      -2.39655426      -1.27380216
F       -3.28607781      -2.21763941       0.00803141
C       -1.79206075      -1.79206075      -1.79206075
C       -1.44547547      -1.98772038      -3.12991301
C       -0.45382080      -5.05918433      -4.99756791
H       -0.97940729      -5.19465327      -4.04618243
C        1.03360908      -4.75735984      -4.77527997
C        1.73514261      -5.40182301      -5.97032981
C        0.60044270      -6.04194398      -6.78122717
H        0.93061433      -6.96998646      -7.26027856
N       -0.47221908      -6.29572906      -5.80143718
C       -0.23893893      -7.49798182      -5.00503116
C        0.06770136      -5.06764298      -7.80526781
C        0.30064757      -5.09349734      -9.13176582
C        1.15563106      -6.07317449      -9.79979534
C        0.60975687      -7.26588083     -10.28978277
C        1.42931211      -8.20097931     -10.92483938
C        2.78955250      -7.94240031     -11.06747880
F        3.55655929      -8.85618033     -11.67984864
C        3.33992384      -6.75835554     -10.58166517
Br       5.18795189      -6.40573423     -10.77213292
C        2.52533890      -5.81982716      -9.94612677
H       -2.31886806      -2.23952619      -6.02878039
H       -4.02886182      -4.02254747      -4.04652921
H       -4.62693199      -3.66047456      -1.66019771
H       -0.55915001      -1.50911345      -3.54036276
H        1.25224200      -3.68574935      -4.71079839
H        1.38824564      -5.22196798      -3.84734762
H        2.31109280      -4.66558583      -6.54194926
H        2.43707295      -6.16593675      -5.61554590
H       -0.24684337      -8.38277339      -5.65140709
H       -1.05024863      -7.63212340      -4.28114322
H        0.70780024      -7.49013169      -4.45528879
H       -0.13830396      -4.34740090      -9.79298502
H       -0.45364579      -7.47081649     -10.18113001
H        1.01621857      -9.12788989     -11.31082646
H        2.95045625      -4.89150808      -9.57136010
O       -6.01186819       6.28245609       0.07164742
C       -6.51139814       5.19563051       0.35878979
C       -5.71763582       4.11652027       1.04065684
C       -4.44649306       4.41590067       1.37081059
C       -3.50856767       3.48464292       1.99576515
C       -3.40895474       3.41344142       3.39037053
C       -2.50005289       2.53423704       3.98224447
C       -1.69574530       1.72937619       3.18039987
F       -0.82817967       0.89541930       3.77208684
C       -1.79206075       1.79206075       1.79206075
C       -2.69894003       2.66917649       1.19499235
C       -6.42449277       2.80292537       1.28315491
H       -5.92131777       2.22968221       2.06924302
C       -6.51983967       1.99885547      -0.01966441
C       -7.83563547       2.45239467      -0.65101992
C       -8.40774849       3.47008234       0.34489762
H       -9.50184360       3.42561537       0.37219173
N       -7.82276841       3.09959250       1.64702441
C       -8.50264876       1.96753567       2.27176748
C       -7.93401010       4.86407518       0.00712415
C       -8.66111946       5.83768514      -0.57418901
C      -10.04720952       5.68196226      -1.01183301
C      -11.09929142       5.98588269      -0.13926739
C      -12.42212924       5.83345894      -0.55908159
C      -12.68934976       5.37789183      -1.84691498
F      -13.96784193       5.23839671      -2.22676896
C      -11.64776561       5.07263352      -2.72030225
Br     -12.00813784       4.45135859      -4.46958117
C      -10.32337626       5.22331884      -2.30608007
H       -4.03015360       5.39976241       1.15725863
H       -4.03211981       4.04533167       4.02048702
H       -2.40984177       2.47513455       5.06262795
H       -2.76958332       2.72787281       0.11117009
H       -5.67219944       2.16557838      -0.69347208
H       -6.56568900       0.92371634       0.19166463
H       -7.67717942       2.87055560      -1.65129274
H       -8.50793148       1.59248577      -0.75600754
H       -9.53884497       2.23594193       2.50623693
H       -8.02079129       1.71897777       3.22374619
H       -8.51964802       1.06355154       1.65442068
H       -8.23006756       6.81869188      -0.77006957
H      -10.89404894       6.34354640       0.86799696
H      -13.24561251       6.06859888       0.10828638
H       -9.50774745       4.99209264      -2.98742815
O        0.37755397      -4.65008830       7.33832943
C        0.32280806      -5.38763496       6.35537543
C        0.88046300      -4.97134103       5.02300890
C        1.49146587      -3.77206418       4.96967426
C        2.05314803      -3.17843841       3.75738929
C        3.39213228      -3.40404046       3.41659396
C        3.92839772      -2.82157219       2.26656449
C        3.12632878      -2.01790846       1.46128412
F        3.66499210      -1.46689450       0.36379921
C        1.79206075      -1.79206075       1.79206075
C        1.25071765      -2.37181712       2.94057410
C        0.69554804      -5.93849249       3.87653251
H        1.41273547      -5.73291470       3.07459281
C       -0.74817777      -5.88632288       3.36088562
C       -1.48948183      -6.92656568       4.19992638
C       -0.41262073      -7.51232518       5.12302400
H       -0.59282734      -8.57511621       5.31736182
N        0.85874391      -7.30598718       4.40465422
C        1.08521609      -8.29916951       3.35756631
C       -0.34313773      -6.73313028       6.41521688
C       -0.81575352      -7.12671317       7.61365594
C       -1.51868477      -8.38660683       7.84941671
C       -0.80407421      -9.53340149       8.21657944
C       -1.47782256     -10.73601219       8.43831695
C       -2.86101651     -10.78930477       8.29203835
F       -3.48563591     -11.95591828       8.50918730
C       -3.57859622      -9.65263166       7.92606144
Br      -5.45748474      -9.72297488       7.72442511
C       -2.91031383      -8.44760979       7.70331907
H        1.57904778      -3.14902598       5.85910088
H        4.02388961      -4.02717487       4.04687401
H        4.96716327      -2.98454979       1.99589121
H        0.21208108      -2.18939511       3.20715002
H       -1.20494717      -4.89489377       3.45435914
H       -0.79151499      -6.17012486       2.30246009
H       -2.32741062      -6.47843206       4.74542085
H       -1.90098466      -7.70227244       3.54312192
H        1.18316801      -9.29605579       3.80180003
H        2.02936866      -8.09237319       2.84177340
H        0.29055194      -8.34137998       2.60568832
H       -0.70922053      -6.49399141       8.49391900
H        0.27739749      -9.49508255       8.33311226
H       -0.93404896     -11.63067211       8.72587463
H       -3.46803414      -7.55668539       7.42376068
C       -0.00445707       0.01189536      -1.78238275
H       -0.66409135       0.67374010      -2.43557963
H        0.65740317      -0.63156657      -2.45157240
C       -0.90989263      -0.90692880      -0.91072765
C        0.90977584       0.90977584      -0.90977584
C       -0.00465871       1.77757030       0.00794375
H       -0.66225468       2.44313916      -0.64384735
H        0.64322798       2.43503045       0.67728295
C       -1.78241447       0.00034974      -0.00472694
H       -2.45427497      -0.65498947       0.64260836
H       -2.43311707       0.67328779      -0.65473579
C       -0.91132561       0.90220522       0.91563759
C       -0.01476271      -0.02253852       1.78660255
H       -0.67934791      -0.69751639       2.42135241
H        0.63392994       0.61504881       2.47327442
C        0.01484550      -1.77751727      -0.01636693
H        0.67870853      -2.42144646      -0.68295456
H       -0.62264859      -2.45592969       0.64226336
C        1.78714474       0.01002794       0.00389507
H        2.44202412       0.67113390       0.66197326
H        2.45385902      -0.65136977      -0.64189061
C        0.91606151      -0.90478549       0.90901405
