177
Properties=species:S:1:pos:R:3 pbc="F F F"
C        0.00000000       0.00000000       0.00000000
C        0.88195448       0.88195448      -0.88195448
C        0.48676720       2.18819794      -1.16747821
C        1.29174243       2.99309486      -1.97431671
C        2.48673522       2.48979595      -2.49203909
C        2.88161964       1.17910252      -2.20333073
C        2.07412424       0.37229801      -1.39503331
C        4.12736060       0.64673538      -2.75400140
C        4.21843224       0.00772564      -3.93621932
C        3.08695716      -0.24425171      -4.90613478
H        2.24672610       0.43084904      -4.71240504
C        2.64696234      -1.71221171      -4.83992701
C        3.53101233      -2.41951553      -5.86632476
C        4.39544099      -1.30078253      -6.46402836
H        4.59871847      -1.48400362      -7.52434269
N        3.61012028      -0.06742869      -6.27344146
C        2.55596951       0.09243026      -7.27156099
C        5.68041834      -1.15115879      -5.68400732
C        6.90837481      -1.53085216      -6.08682233
C        7.18766563      -2.17922016      -7.36745211
C        7.17094355      -3.57465326      -7.46425827
C        7.42695877      -4.19720351      -8.68747289
C        7.69906795      -3.42699807      -9.81847391
C        7.71431180      -2.03609072      -9.72011602
Br       8.08065810      -0.99368140     -11.25438320
C        7.46032606      -1.40695414      -8.50174229
C        5.57426206      -0.50863251      -4.32943695
O        6.53824360      -0.43848854      -3.57013411
H       -0.44112073       2.58780747      -0.76617774
H        0.98981516       4.01316109      -2.19890812
H        3.10763640       3.12489997      -3.12074437
H        2.37818162      -0.64575150      -1.16421379
H        5.00216628       0.78654242      -2.12080915
H        2.75714039      -2.15194577      -3.84233731
H        1.59396685      -1.81409121      -5.12943883
H        4.12067125      -3.21889016      -5.40403919
H        2.90161611      -2.87805868      -6.63813292
H        2.99755419       0.20390482      -8.26811300
H        1.98955356       1.00936346      -7.07574566
H        1.84814192      -0.74192016      -7.30749936
H        7.78096213      -1.37485618      -5.45443931
H        6.96417715      -4.18469773      -6.58727868
H        7.41774071      -5.28203140      -8.75778100
H        7.89989839      -3.91827123     -10.76710382
H        7.47308871      -0.32186991      -8.43149431
C       -0.88195448      -0.88195448      -0.88195448
C       -0.42362703      -1.28247403      -2.13634230
C       -1.22998774      -2.08678918      -2.94237709
C       -2.48959851      -2.48682426      -2.49214750
C       -2.94688482      -2.08446469      -1.23270338
C       -2.13857680      -1.27764728      -0.42523149
C       -4.27051936      -2.49326949      -0.76430853
C       -5.39809463      -1.78772608      -0.97655648
C       -5.51068338      -0.49185538      -1.74630147
H       -4.64358688      -0.34705507      -2.39933823
C       -5.68172720       0.68722367      -0.78017410
C       -7.19331709       0.80375055      -0.58825503
C       -7.77942143      -0.30085902      -1.47840638
H       -8.73530067       0.00952374      -1.91328060
N       -6.76382462      -0.52966892      -2.52263951
C       -6.80781553       0.47223290      -3.58437813
C       -7.93108571      -1.58491622      -0.69726495
C       -9.08592483      -2.12089824      -0.25752191
C      -10.40119917      -1.51471396      -0.45998445
C      -10.92101233      -0.63434027       0.49480404
C      -12.17194291      -0.04553737       0.30025213
C      -12.90691633      -0.33353390      -0.85009356
C      -12.38657415      -1.21062710      -1.80113586
Br     -13.38273383      -1.59782898      -3.36079709
C      -11.13822515      -1.80326536      -1.61362370
C       -6.66753947      -2.33827479      -0.38925224
O       -6.66809676      -3.33363540       0.33184299
H        0.55682267      -0.97690313      -2.49278401
H       -0.87725970      -2.40390293      -3.92072175
H       -3.11152099      -3.11366945      -3.12809030
H       -2.48737291      -0.96534610       0.55607510
H       -4.28673615      -3.42380634      -0.19897535
H       -5.16447614       0.54209048       0.17485373
H       -5.29543762       1.61196869      -1.22584555
H       -7.47241099       0.70041087       0.46617984
H       -7.53021961       1.79184109      -0.92331184
H       -7.76301287       0.41111237      -4.11767150
H       -6.02372163       0.27159615      -4.32253721
H       -6.68438142       1.50063755      -3.22997725
H       -9.09607539      -3.05925237       0.29478250
H      -10.35786729      -0.40642527       1.39753446
H      -12.57470658       0.63448783       1.04672845
H      -13.88119778       0.12650556      -0.99403876
H      -10.73754535      -2.48601105      -2.35915672
C       -0.88195448       0.88195448       0.88195448
C       -1.77085003       1.77960397       0.29198935
C       -2.57523612       2.58616163       1.09775625
C       -2.48790393       2.49259621       2.48807012
C       -1.59591770       1.59043314       3.07770206
C       -0.78924543       0.78252811       2.26968204
C       -1.49514167       1.49921552       4.53374019
C       -0.64823553       2.23429689       5.27984478
C        0.30892784       3.28730722       4.77046085
H        0.01678546       3.63338296       3.77338267
C        1.74436624       2.74656881       4.77247507
C        2.27926435       3.09655015       6.16053576
C        1.11982645       3.83488546       6.84362780
H        1.49127025       4.62122860       7.50909918
N        0.32207615       4.39895279       5.73925641
C        0.89827304       5.62491423       5.19331958
C        0.24107591       2.86121500       7.59312777
C        0.17552199       2.70990957       8.92995740
C        0.98031184       3.47375516       9.88245425
C        2.22363549       2.98583704      10.29834702
C        2.99960388       3.71710228      11.19972974
C        2.53611327       4.93933535      11.68732171
C        1.29688837       5.42445254      11.27077294
Br       0.67138335       7.08226138      11.93048186
C        0.51572791       4.69953579      10.37130633
C       -0.65086386       1.98243971       6.76176293
O       -1.32232592       1.08369205       7.26387120
H       -1.84609909       1.85650161      -0.78973622
H       -3.27169514       3.28668648       0.64350275
H       -3.11893049       3.12612830       3.10822195
H       -0.09715657       0.07684298       2.72264437
H       -2.15485408       0.76348772       4.99117604
H        1.80084866       1.66953160       4.57884899
H        2.34867514       3.24997074       4.00801887
H        2.59909601       2.20070796       6.70420833
H        3.15259917       3.75207213       6.06221740
H        0.89803332       6.41107590       5.95652942
H        0.28284589       5.99248670       4.36502188
H        1.92382852       5.50939086       4.82815878
H       -0.49707748       1.98219180       9.38127598
H        2.59239589       2.03163447       9.92751952
H        3.96323259       3.33244026      11.52428264
H        3.14429175       5.50230851      12.39071422
H       -0.44957050       5.08336419      10.04977842
C        0.88195448      -0.88195448       0.88195448
C        2.26794860      -0.73699697       0.83749779
C        3.07340249      -1.54371979       1.64203172
C        2.49114655      -2.49097295       2.48645076
C        1.10014630      -2.63388253       2.53002406
C        0.29305505      -1.82548743       1.72291308
C        0.48926317      -3.63326766       3.40556656
C        0.22535523      -4.90127809       3.03574387
C        0.53231363      -5.52354865       1.69297794
H        1.29035124      -4.94354457       1.15608437
C       -0.75151878      -5.66128208       0.86491434
C       -1.30288927      -7.03459653       1.24611430
C       -0.28127186      -7.59431029       2.24564839
H       -0.18324026      -8.68006075       2.14223703
N        0.98370197      -6.90820208       1.92422900
C        1.66403758      -7.48712576       0.76879742
C       -0.66151656      -7.21674509       3.65803834
C       -1.17040691      -8.03932643       4.59542547
C       -1.45611822      -9.45650760       4.37550820
C       -2.71935393      -9.85457490       3.92532758
C       -2.99286099     -11.20576604       3.70432309
C       -2.00411831     -12.16356894       3.93109315
C       -0.74521215     -11.76463904       4.37891022
Br       0.59445330     -13.06367153       4.68323506
C       -0.46461272     -10.41706516       4.60266177
C       -0.44196051      -5.78345559       4.05357142
O       -0.81783897      -5.34797411       5.13975403
H        2.72844405      -0.00014785       0.18427257
H        4.15472792      -1.43400256       1.61315390
H        3.12754417      -3.11593300       3.10980356
H       -0.78871889      -1.92959976       1.75576304
H        0.23539470      -3.27285674       4.40126641
H       -1.47973074      -4.86631697       1.06094570
H       -0.52415039      -5.64135173      -0.20788687
H       -2.31421057      -6.95924064       1.66079021
H       -1.35901234      -7.66785433       0.35284836
H        1.96334478      -8.51806382       0.98816341
H        2.58455148      -6.93194479       0.55816642
H        1.05882824      -7.49826305      -0.14337017
H       -1.40850698      -7.67537765       5.59367459
H       -3.49888375      -9.11602249       3.74961937
H       -3.97723041     -11.51175165       3.35896907
H       -2.22460764     -13.21402467       3.75931395
H        0.51921711     -10.11212677       4.95136924
