150
Properties=species:S:1:pos:R:3 pbc="F F F"
C        1.79119631       1.79119631      -1.79119631
C        1.25104578       2.92243864      -2.39792683
C        2.05774426       3.73002521      -3.20660013
C        3.40981055       3.41499631      -3.41241806
C        3.93175449       2.26522635      -2.79991491
C        3.12852162       1.45746270      -1.98949425
C        4.27214926       4.23253206      -4.26187213
C        4.05840122       5.57048017      -4.53278938
S        5.25904946       6.15474048      -5.60564101
C        6.00205419       4.60046034      -5.61308867
N        5.40673049       3.69695442      -4.85640418
C        7.18596622       4.33648208      -6.39642157
S        8.17994816       2.96110992      -6.10452151
C        9.22423762       3.45199586      -7.37235645
C        8.74877464       4.61037928      -7.95013242
N        7.59239015       5.11622832      -7.38150684
C        9.39502080       5.30740368      -9.11055251
C        8.86579820       6.44073496      -9.69831757
C        9.66261076       6.90870229     -10.78765216
C       10.76247268       6.10982649     -10.97028866
S       10.84549373       4.82001231      -9.87450900
H        0.20510595       3.18161740      -2.25529346
H        1.60312254       4.59436844      -3.68447450
H        4.97464190       1.99056339      -2.95232467
H        3.55575392       0.57310429      -1.52434409
H        3.28055145       6.22626329      -4.17376813
H       10.09841447       2.86972062      -7.62519512
H        7.94618962       6.91021957      -9.36641367
H        9.42963626       7.77799403     -11.38881304
C       11.75116864       6.33905919     -11.99182313
C       12.57920150       6.53104158     -12.84735826
Br      13.91806060       6.84146086     -14.23068619
C       -1.79119631      -1.79119631      -1.79119631
C       -2.82878205      -1.21932853      -2.52330069
C       -3.63757653      -2.02643607      -3.33035701
C       -3.41382989      -3.40941554      -3.41397950
C       -2.36939019      -3.96703008      -2.66047548
C       -1.55812345      -3.16261086      -1.85474425
C       -4.25032530      -4.27817503      -4.23805311
C       -4.96701790      -3.85403584      -5.34061704
S       -5.85768402      -5.15844987      -6.00329706
C       -5.20658291      -6.20732049      -4.80169979
N       -4.36650035      -5.63347542      -3.96011332
C       -5.56988524      -7.60366410      -4.74532053
S       -4.64038340      -8.74864216      -3.85655402
C       -5.71795426      -9.99161527      -4.33902039
C       -6.72226310      -9.46397420      -5.12304904
N       -6.62575747      -8.10359941      -5.36076843
C       -7.85794765     -10.25877472      -5.69625462
C       -8.87616974      -9.69056984      -6.43811115
C       -9.83984373     -10.65525584      -6.86386564
C       -9.50258646     -11.91144708      -6.42855430
S       -8.07159973     -11.94665937      -5.52175595
H       -3.02197284      -0.15104156      -2.46900243
H       -4.45329073      -1.55534590      -3.87332886
H       -2.18108558      -5.03916315      -2.69728122
H       -0.75426823      -3.61710596      -1.28182811
H       -5.02213980      -2.87276927      -5.78567380
H       -5.56551235     -11.01135724      -4.01646062
H       -8.93118922      -8.63060066      -6.66103298
H      -10.71901139     -10.42562585      -7.45180609
C      -10.28462971     -13.08735497      -6.71006629
C      -10.93959092     -14.07217782      -6.94583258
Br     -11.99860781     -15.66455309      -7.32704674
C       -1.79119631       1.79119631       1.79119631
C       -2.98425916       1.28554876       2.30160334
C       -3.79301651       2.09290067       3.10845243
C       -3.41439567       3.40947532       3.41335393
C       -2.21333927       3.90279552       2.88076097
C       -1.40200876       3.09757193       2.07589788
C       -4.24515729       4.27919560       4.24220055
C       -5.15706334       3.82766694       5.17694050
S       -5.96450735       5.15287743       5.90204617
C       -5.02597234       6.23953897       4.95009189
N       -4.15282759       5.66116031       4.14610119
C       -5.20259004       7.66935439       5.04692544
S       -4.02287471       8.77253540       4.45016947
C       -4.99606127      10.08600425       4.96652441
C       -6.15830721       9.61269701       5.53828213
N       -6.26490823       8.23348606       5.59173102
C       -7.25667992      10.48294182       6.07335525
C       -8.43164654       9.97695654       6.59624765
C       -9.31928913      11.00799633       7.03167976
C       -8.77158612      12.24804164       6.82296007
S       -7.23365991      12.19258755       6.11376758
H       -3.29817510       0.27015860       2.07368312
H       -4.72901729       1.67827213       3.47467607
H       -1.90127994       4.92481144       3.09143857
H       -0.47547889       3.50126768       1.67645573
H       -5.39508527       2.81665822       5.46883939
H       -4.67498275      11.10595901       4.81238845
H       -8.64793289       8.91603413       6.65885583
H      -10.29417140      10.83395352       7.46831841
C       -9.43440137      13.47872668       7.16892291
C       -9.98950914      14.50942540       7.45866679
Br     -10.88707145      16.17597805       7.92715814
C        1.79119631      -1.79119631       1.79119631
C        1.44621496      -3.12405163       2.00114467
C        2.25274347      -3.93209255       2.80953357
C        3.41060668      -3.41538004       3.41123820
C        3.73480766      -2.06717637       3.19491172
C        2.93186324      -1.25782893       2.38578639
C        4.26413437      -4.23205282       4.27036626
C        4.34784436      -5.60965938       4.20416704
S        5.41735816      -6.19462678       5.40744601
C        5.72358638      -4.57705224       5.91496459
N        5.08223286      -3.64911432       5.22874191
C        6.61958503      -4.28920658       7.01007826
S        7.26876477      -2.71447376       7.26234105
C        8.12751734      -3.29202072       8.62905187
C        7.85644410      -4.63022645       8.82261581
N        7.00496445      -5.19599599       7.88916487
C        8.41254733      -5.45527081       9.94515884
C        8.08223768      -6.78308930      10.13952375
C        8.73679401      -7.34316113      11.27901008
C        9.53764258      -6.41332176      11.89162349
S        9.50781593      -4.89769347      11.13450564
H        0.55111969      -3.54263377       1.54826336
H        1.94663699      -4.96251622       2.97281228
H        4.62111780      -1.63704214       3.65937001
H        3.20441562      -0.21719381       2.23159288
H        3.85062455      -6.29471883       3.53523950
H        8.75585029      -2.63019985       9.20728007
H        7.39808467      -7.32719523       9.49754296
H        8.61694226      -8.36519396      11.61430711
C       10.32662364      -6.69181915      13.06360817
C       10.98739527      -6.92506071      14.04514535
Br      12.05580711      -7.30219259      15.63220794
C       -0.00445707       0.01189536      -1.78238275
H       -0.66409135       0.67374010      -2.43557963
H        0.65740317      -0.63156657      -2.45157240
C       -0.90989263      -0.90692880      -0.91072765
C        0.90977584       0.90977584      -0.90977584
C       -0.00465871       1.77757030       0.00794375
H       -0.66225468       2.44313916      -0.64384735
H        0.64322798       2.43503045       0.67728295
C       -1.78241447       0.00034974      -0.00472694
H       -2.45427497      -0.65498947       0.64260836
H       -2.43311707       0.67328779      -0.65473579
C       -0.91132561       0.90220522       0.91563759
C       -0.01476271      -0.02253852       1.78660255
H       -0.67934791      -0.69751639       2.42135241
H        0.63392994       0.61504881       2.47327442
C        0.01484550      -1.77751727      -0.01636693
H        0.67870853      -2.42144646      -0.68295456
H       -0.62264859      -2.45592969       0.64226336
C        1.78714474       0.01002794       0.00389507
H        2.44202412       0.67113390       0.66197326
H        2.45385902      -0.65136977      -0.64189061
C        0.91606151      -0.90478549       0.90901405
