173
Properties=species:S:1:pos:R:3 pbc="F F F"
C        0.00000000       0.00000000       0.00000000
C        3.08961754       3.35587004      -4.63625004
O        3.35591532       3.27145510      -3.24138955
C        2.50509920       2.48488436      -2.50750365
C        1.19284020       2.18318249      -2.89174787
C        0.38347600       1.38054665      -2.08125617
C        0.88139849       0.88139849      -0.88139849
C        2.17760477       1.18649065      -0.47636579
C        2.99413964       1.99496645      -1.28255998
C        4.34972276       2.29225625      -0.80468110
C        5.42133001       1.50839694      -0.98343423
S        5.49451536       0.01986481      -1.85725872
C        7.30433109      -0.11016483      -1.72129455
C        7.70131218       0.74354078      -0.56000450
C        8.73395939       0.46961805       0.25387178
C        9.03322480       1.17149628       1.50900767
C        9.92170224       2.25369742       1.49132344
C       10.20973652       2.93072790       2.67466952
C        9.62866940       2.53525095       3.87752104
C        8.73876009       1.45816764       3.90061886
C        8.42293848       0.78095681       2.71811189
O        7.57011268      -0.29364439       2.65944145
C        6.55449527      -0.33506161       3.65576667
C        6.72314552       1.85106316      -0.34799310
O        6.95222795       2.89036235       0.24858127
H        2.21759265       3.98772217      -4.82979667
H        2.96378492       2.36302975      -5.08118857
H        3.95344418       3.82739467      -5.11378725
H        0.76607360       2.57099224      -3.81115008
H       -0.63271457       1.15545222      -2.39428259
H        2.56024844       0.79727668       0.46437280
H        4.43645251       3.21585366      -0.23665571
H        7.58256519      -1.15940423      -1.58466249
H        7.76003232       0.26359529      -2.64359878
H        9.37225943      -0.39007926       0.06318533
H       10.37129504       2.57408654       0.55530179
H        9.86046817       3.05796639       4.80193774
H        8.31488166       1.16326089       4.85436873
H        5.80710502      -1.06938980       3.33959601
H        6.04821511       0.63132608       3.75888425
H        6.96472450      -0.66941747       4.61396619
C       11.12084170       4.04569373       2.65627010
C       11.88389230       4.97947761       2.64086058
Br      13.11768057       6.48932717       2.61594470
C       -4.21491962      -4.12632767      -2.74049032
O       -3.22551812      -3.30047809      -3.34276377
C       -2.49185121      -2.51350688      -2.49212911
C       -2.93630089      -2.10171148      -1.22975819
C       -2.13114907      -1.28931096      -0.42481878
C       -0.88139849      -0.88139849      -0.88139849
C       -0.43217850      -1.26729288      -2.14098984
C       -1.23662481      -2.07896491      -2.95607635
C       -0.71828672      -2.45023965      -4.27813374
C        0.09693678      -3.48399626      -4.52610169
S        0.67681685      -4.65375255      -3.39470319
C        1.44948702      -5.68802288      -4.67692495
C        1.65920443      -4.80165380      -5.86240809
C        2.68884780      -4.92228933      -6.71626413
C        3.03328961      -3.95884463      -7.77015838
C        2.52856116      -4.15042190      -9.06221548
C        2.84411957      -3.24058940     -10.06932505
C        3.66483934      -2.14633473      -9.80490393
C        4.16863663      -1.94827308      -8.51667241
C        3.84456054      -2.84081511      -7.48952883
O        4.30951076      -2.72372259      -6.20281502
C        4.60524807      -1.40118899      -5.76772607
C        0.65949195      -3.69338100      -5.88831274
O        0.33876757      -3.05527976      -6.87749684
H       -5.07816423      -3.53354969      -2.42339757
H       -3.80260731      -4.70108237      -1.90431356
H       -4.56082586      -4.83855671      -3.49524353
H       -3.91271127      -2.38527435      -0.85023030
H       -2.49085280      -0.97886100       0.55269356
H        0.54357045      -0.94209991      -2.49462286
H       -1.01898974      -1.78525384      -5.08471830
H        2.38627223      -6.10196788      -4.29212780
H        0.77226413      -6.50994620      -4.92954432
H        3.40926836      -5.72867003      -6.59959317
H        1.87986367      -4.99622073      -9.27372274
H        3.91807481      -1.44170772     -10.59286390
H        4.81795938      -1.09668165      -8.34505155
H        4.70242463      -1.42272009      -4.67782375
H        3.79800103      -0.70285621      -6.01580176
H        5.56072112      -1.06184743      -6.18021454
C        2.32259438      -3.43552414     -11.39733557
C        1.88581703      -3.59878198     -12.50954437
Br       1.17958500      -3.86275610     -14.30789194
C       -3.01633504       3.45013015       4.61527242
O       -3.35735597       3.26470721       3.24669680
C       -2.50371532       2.48510479       2.50866709
C       -1.15530527       2.28422315       2.82824214
C       -0.34642066       1.48149379       2.01736437
C       -0.88139849       0.88139849       0.88139849
C       -2.21522736       1.08530923       0.53992462
C       -3.03186564       1.89317732       1.34662312
C       -4.42860192       2.08138643       0.93667176
C       -5.43775040       1.24920782       1.22620297
S       -5.36837225      -0.18444095       2.18770758
C       -7.17158317      -0.42730791       2.17118554
C       -7.68702951       0.32883125       0.98899670
C       -8.74630277      -0.05408688       0.25748976
C       -9.16047784       0.55065697      -1.01542140
C      -10.11136978       1.57855633      -1.00584989
C      -10.50866190       2.16361214      -2.20647916
C       -9.97507108       1.72919205      -3.41786381
C       -9.02338134       0.70614193      -3.43321440
C       -8.59843897       0.12246587      -2.23512144
O       -7.67911179      -0.89522731      -2.16685763
C       -6.72234959      -0.93894664      -3.21973596
C       -6.79284059       1.47604839       0.65331280
O       -7.11967310       2.46161609       0.01271984
H       -2.17511023       4.14219388       4.71780738
H       -2.80403441       2.49553350       5.10843533
H       -3.87840777       3.89927931       5.11693901
H       -0.70063498       2.75198785       3.69559309
H        0.69813624       1.33539484       2.27976164
H       -2.62708341       0.61739008      -0.35132116
H       -4.60481359       2.96167795       0.32247035
H       -7.39214916      -1.49733205       2.11300634
H       -7.59518636      -0.02452921       3.09656925
H       -9.31833559      -0.93597409       0.53663334
H      -10.52480546       1.92935384      -0.06407951
H      -10.29181649       2.17968637      -4.35500604
H       -8.63816454       0.37815321      -4.39254393
H       -5.91409835      -1.60784662      -2.90813252
H       -6.28335458       0.04698519      -3.40968284
H       -7.16608195      -1.35487855      -4.12986256
C      -11.48407613       3.22289090      -2.19670171
C      -12.30098555       4.11003686      -2.18851309
Br     -13.62185898       5.54447684      -2.17527279
C        4.05318473      -4.28038035       2.74817254
O        3.23133288      -3.28740099       3.35002610
C        2.48963662      -2.51321437       2.49463621
C        2.82505598      -2.28892938       1.15378521
C        2.02068084      -1.47659509       0.34800289
C        0.88139849      -0.88139849       0.88139849
C        0.54363194      -1.07983321       2.21699606
C        1.34856207      -1.89031332       3.03279068
C        0.95127732      -2.05981280       4.43556999
C        0.06747246      -2.96074899       4.88493973
S       -0.75787067      -4.16642273       3.96308683
C       -1.47979550      -4.96549427       5.42976204
C       -1.45756775      -3.94261009       6.51981512
C       -2.38820531      -3.85382443       7.48408653
C       -2.50631960      -2.75283741       8.44919560
C       -1.87782851      -2.86654116       9.69536357
C       -1.97839703      -1.82671590      10.61747602
C       -2.70624707      -0.67807503      10.31457136
C       -3.33270207      -0.55767688       9.07133406
C       -3.22424817      -1.58348818       8.12654338
O       -3.82055381      -1.54741926       6.89016140
C       -4.02591429      -0.25184570       6.33773558
C       -0.35203979      -2.96103766       6.31320392
O        0.14565667      -2.26525735       7.18309501
H        4.93066044      -3.82779225       2.27665881
H        3.48932550      -4.88709316       2.03158458
H        4.40848096      -4.94573068       3.54041446
H        3.71616011      -2.72160866       0.71044716
H        2.29489422      -1.31304276      -0.69091674
H       -0.34550155      -0.60879403       2.62985984
H        1.41081725      -1.35409920       5.12404543
H       -2.49273035      -5.30572349       5.19483030
H       -0.86680856      -5.82970891       5.70432604
H       -3.19704254      -4.57897522       7.53706216
H       -1.30026278      -3.75529918       9.93504339
H       -2.79194722       0.12908131      11.03752535
H       -3.90566056       0.34101397       8.87044834
H       -4.25049081      -0.37492805       5.27368198
H       -3.12728450       0.37014060       6.41808204
H       -4.88672788       0.23692561       6.80499434
C       -1.32949408      -1.94195323      11.89780618
C       -0.78603786      -2.03846449      12.97008269
Br       0.09268488      -2.19451504      14.70386312
