186
Properties=species:S:1:pos:R:3 pbc="F F F"
C        3.99952156       4.26577406      -5.54615407
O        4.26581935       4.18135912      -4.15129358
C        3.41500322       3.39478838      -3.41740767
C        2.10274423       3.09308651      -3.80165190
C        1.29338003       2.29045067      -2.99116019
C        1.79130251       1.79130251      -1.79130251
C        3.08750880       2.09639467      -1.38626982
C        3.90404366       2.90487048      -2.19246401
C        5.25962678       3.20216028      -1.71458513
C        6.33123403       2.41830096      -1.89333826
S        6.40441938       0.92976884      -2.76716274
C        8.21423511       0.79973919      -2.63119857
C        8.61121620       1.65344480      -1.46990853
C        9.64386341       1.37952207      -0.65603224
C        9.94312882       2.08140030       0.59910365
C       10.83160626       3.16360145       0.58141941
C       11.11964054       3.84063192       1.76476550
Br      12.31611624       5.30482019       1.74060313
C       10.53857343       3.44515498       2.96761701
C        9.64866411       2.36807166       2.99071484
C        9.33284250       1.69086084       1.80820787
O        8.48001671       0.61625963       1.74953742
C        7.46439929       0.57484242       2.74586265
C        7.63304954       2.76096719      -1.25789712
O        7.86213198       3.80026637      -0.66132276
H        3.12749668       4.89762619      -5.73970070
H        3.87368894       3.27293378      -5.99109259
H        4.86334820       4.73729869      -6.02369127
H        1.67597763       3.48089626      -4.72105411
H        0.27718945       2.06535624      -3.30418662
H        3.47015246       1.70718071      -0.44553122
H        5.34635653       4.12575769      -1.14655973
H        8.49246922      -0.24950020      -2.49456651
H        8.66993634       1.17349932      -3.55350280
H       10.28216345       0.51982476      -0.84671869
H       11.28119907       3.48399056      -0.35460224
H       10.77037219       3.96787041       3.89203372
H        9.22478568       2.07316492       3.94446471
H        6.71700905      -0.15948577       2.42969199
H        6.95811913       1.54123010       2.84898023
H        7.87462853       0.24048655       3.70406216
C       -5.50104510      -4.43797127      -3.87243332
O       -4.13360821      -4.24887054      -4.21599330
C       -3.41063842      -3.42062907      -3.39593179
C       -3.97873458      -2.41709802      -2.60165004
C       -3.17052381      -1.60575504      -1.79871204
C       -1.79130251      -1.79130251      -1.79130251
C       -1.20913481      -2.77258291      -2.58845557
C       -2.01359154      -3.58769123      -3.40009538
C       -1.34800977      -4.60151068      -4.22685173
C       -1.00016205      -5.82787681      -3.81483439
S       -1.29871255      -6.53537304      -2.26726536
C       -0.69831926      -8.17823691      -2.76861670
C        0.18208721      -7.95970859      -3.95694815
C        1.26318227      -8.70585634      -4.23674366
C        2.25533641      -8.40383833      -5.27692356
C        2.10066174      -8.96309756      -6.55135248
C        3.03251070      -8.68007277      -7.54794490
Br       2.82167962      -9.43167922      -9.27033370
C        4.12219656      -7.85260168      -7.28570627
C        4.27981909      -7.28904772      -6.01679231
C        3.34213648      -7.54641979      -5.01121216
O        3.43302882      -7.04275370      -3.73701403
C        4.11462683      -5.79990916      -3.60809673
C       -0.21804465      -6.73045924      -4.70340996
O        0.04517492      -6.49722292      -5.87167311
H       -6.09232174      -3.55154444      -4.12095739
H       -5.61586955      -4.70529552      -2.81655025
H       -5.88404551      -5.27037694      -4.46991571
H       -5.04814790      -2.23226124      -2.59751886
H       -3.62737833      -0.83161687      -1.18773711
H       -0.13031940      -2.91045798      -2.58208702
H       -1.10745519      -4.27503386      -5.23618491
H       -0.16588749      -8.63990780      -1.93174023
H       -1.55431898      -8.80510528      -3.03751420
H        1.52088675      -9.55782899      -3.61176467
H        1.24797958      -9.60162358      -6.76614787
H        4.85377856      -7.63919746      -8.06078998
H        5.14660911      -6.66218383      -5.83791117
H        3.88469254      -5.39477628      -2.61774754
H        3.77379767      -5.07159194      -4.35257473
H        5.19821435      -5.94420453      -3.66506273
C       -4.59760239       3.78006597       5.43378132
O       -4.24021782       4.22689299       4.13136124
C       -3.42188653       3.39708179       3.40823096
C       -2.55830127       2.45642594       3.98275544
C       -1.74650322       1.65312118       3.17536649
C       -1.79130251       1.79130251       1.79130251
C       -2.63115717       2.73384213       1.20517398
C       -3.44550542       3.54649324       2.00937949
C       -4.30642529       4.52931805       1.34062885
C       -5.52389911       4.27733808       0.84163606
S       -6.39718361       2.78852945       0.91563791
C       -7.91774044       3.50672523       0.22070721
C       -7.50290910       4.74265675      -0.51099632
C       -8.10684642       5.19472878      -1.62215748
C       -7.61160488       6.28571268      -2.47189208
C       -8.06417516       7.59059823      -2.24098510
C       -7.59786108       8.63478661      -3.03714073
Br      -8.20549847      10.39774461      -2.72290978
C       -6.69189701       8.39133157      -4.06711719
C       -6.23426705       7.09174506      -4.29999118
C       -6.67658607       6.03551928      -3.49660988
O       -6.28552527       4.73063215      -3.66941850
C       -4.99717034       4.53968044      -4.24347173
C       -6.25714412       5.32084323       0.07392651
O       -5.89209488       6.47869539      -0.04706916
H       -3.75655112       3.88214985       6.12612261
H       -4.97106403       2.75062578       5.41602550
H       -5.40607866       4.42104872       5.79721079
H       -2.48388940       2.33535088       5.05868771
H       -1.08204637       0.92750417       3.63718178
H       -2.65906102       2.84062378       0.12317960
H       -3.86591018       5.51820740       1.23455637
H       -8.39804630       2.77339034      -0.43390111
H       -8.60070699       3.75793194       1.03829954
H       -8.98214140       4.68558686      -2.01902135
H       -8.76332500       7.78969658      -1.43322972
H       -6.33518552       9.20474178      -4.69371841
H       -5.54194100       6.93070099      -5.11915610
H       -4.71012870       3.49647600      -4.07877342
H       -4.24180780       5.17208458      -3.76352337
H       -5.02513139       4.71029038      -5.32436886
C        5.36380867      -4.72435181       3.72328921
O        4.13094288      -4.23253878       4.23499038
C        3.40633801      -3.42262732       3.39823395
C        3.96625244      -2.67913505       2.35209515
C        3.15951322      -1.86706215       1.54841553
C        1.79130251      -1.79130251       1.79130251
C        1.22175041      -2.51014209       2.83828078
C        2.02588069      -3.32380841       3.65168905
C        1.37584690      -4.05404803       4.74647725
C        0.77006412      -5.24320646       4.62960268
S        0.66085057      -6.22690212       3.21359828
C       -0.08485444      -7.63030067       4.09972665
C       -0.68335558      -7.06865680       5.34926831
C       -1.79648780      -7.54732837       5.92857715
C       -2.51793280      -6.90703529       7.03632298
C       -2.21790902      -7.27918490       8.35251241
C       -2.89194488      -6.67535863       9.41209321
Br      -2.48406714      -7.17454681      11.18985363
C       -3.86848118      -5.71072492       9.17386765
C       -4.16966606      -5.33299861       7.86268839
C       -3.48763724      -5.91443287       6.78869984
O       -3.73443635      -5.60805252       5.47312274
C       -4.22539159      -4.29568784       5.22308281
C        0.03588761      -5.83418081       5.78184544
O        0.03461478      -5.37636498       6.91274135
H        6.12214547      -3.93582149       3.70685660
H        5.23674473      -5.17003204       2.73093854
H        5.71653615      -5.50975855       4.39804346
H        5.03169038      -2.69968170       2.14655592
H        3.60982272      -1.29671654       0.74019305
H        0.15257489      -2.44393224       3.02635727
H        1.38152579      -3.53484505       5.70230312
H       -0.82932887      -8.10971502       3.45714937
H        0.69759350      -8.35578329       4.34356167
H       -2.29599715      -8.42339426       5.52130980
H       -1.45057789      -8.02381131       8.54655845
H       -4.40039668      -5.24634489      10.00026068
H       -4.94581455      -4.59144478       7.70785565
H       -4.12351663      -4.10028871       4.15105920
H       -3.64231561      -3.53637749       5.75630713
H       -5.28840238      -4.22492028       5.47453501
C       -0.00445707       0.01189536      -1.78238275
H       -0.66409135       0.67374010      -2.43557963
H        0.65740317      -0.63156657      -2.45157240
C       -0.90989263      -0.90692880      -0.91072765
C        0.90977584       0.90977584      -0.90977584
C       -0.00465871       1.77757030       0.00794375
H       -0.66225468       2.44313916      -0.64384735
H        0.64322798       2.43503045       0.67728295
C       -1.78241447       0.00034974      -0.00472694
H       -2.45427497      -0.65498947       0.64260836
H       -2.43311707       0.67328779      -0.65473579
C       -0.91132561       0.90220522       0.91563759
C       -0.01476271      -0.02253852       1.78660255
H       -0.67934791      -0.69751639       2.42135241
H        0.63392994       0.61504881       2.47327442
C        0.01484550      -1.77751727      -0.01636693
H        0.67870853      -2.42144646      -0.68295456
H       -0.62264859      -2.45592969       0.64226336
C        1.78714474       0.01002794       0.00389507
H        2.44202412       0.67113390       0.66197326
H        2.45385902      -0.65136977      -0.64189061
C        0.91606151      -0.90478549       0.90901405
