162
Properties=species:S:1:pos:R:3 pbc="F F F"
C        1.79214912       1.79214912      -1.79214912
C        1.31163187       2.23684123      -3.02054180
C        2.11240741       3.05610146      -3.81278058
C        3.38750965       3.42679951      -3.37448208
C        3.88602601       2.96919927      -2.14884380
C        3.06777061       2.15386628      -1.35393441
C        5.18945413       3.37657126      -1.62090937
H        5.25434450       3.49027977      -0.54067253
C        6.38319937       3.76824983      -2.35418133
S        6.79440690       3.35706637      -3.96404114
C        8.33006999       4.30489976      -4.08775452
C        8.57375252       4.89979164      -2.75264556
C        9.58464145       5.69416534      -2.36755621
C       10.65115201       6.11489894      -3.27478369
C       10.50114309       7.27526387      -4.04305504
C       11.50793189       7.66753658      -4.92716103
C       12.66750438       6.90169744      -5.04759560
C       12.81540719       5.74680884      -4.28053185
C       11.81415859       5.34818371      -3.39511636
C        7.52116548       4.53339665      -1.78736260
O        7.52456484       4.82665072      -0.60297799
H        0.31870030       1.95982942      -3.36389683
H        1.74300602       3.41717737      -4.76942334
H        3.97257671       4.09319468      -4.00266031
H        3.42255606       1.80052383      -0.38820896
H        9.13947847       3.62907596      -4.37884491
H        8.20799462       5.07634966      -4.85370592
H        9.65237289       6.07270776      -1.34878276
H        9.60246613       7.88271891      -3.95612753
H       11.38910982       8.57102278      -5.52050254
H       13.44750706       7.21313345      -5.73756365
H       11.93867743       4.44701471      -2.79942044
C       14.01225596       4.95595160      -4.40582290
C       15.01461680       4.29360866      -4.51075416
Br      16.63534951       3.22265615      -4.68041913
C       -1.79214912      -1.79214912      -1.79214912
C       -3.17282315      -1.61550149      -1.78069026
C       -3.97124993      -2.40951337      -2.60052614
C       -3.38725771      -3.37467227      -3.42686125
C       -2.00116707      -3.57175116      -3.43115084
C       -1.20541585      -2.75985305      -2.61030240
C       -1.33874358      -4.52786666      -4.32032452
H       -0.35758734      -4.23730558      -4.69040387
C       -1.86475228      -5.76522261      -4.87565562
S       -3.13895363      -6.72359588      -4.25296491
C       -3.18995725      -7.96810023      -5.56466679
C       -2.07682811      -7.65726810      -6.49209351
C       -1.72951549      -8.29750481      -7.61934270
C       -2.45428125      -9.46272041      -8.12383299
C       -3.54893472      -9.29137805      -8.97914923
C       -4.25728235     -10.40078161      -9.44456554
C       -3.87528502     -11.68496962      -9.05654279
C       -2.78387514     -11.85348100      -8.20539173
C       -2.07114645     -10.75025765      -7.73605457
C       -1.31146581      -6.47515502      -6.05530391
O       -0.30179154      -6.05555439      -6.59684761
H       -3.63298447      -0.86189561      -1.14754648
H       -5.04983171      -2.27305263      -2.60672240
H       -4.03671592      -3.95424069      -4.07747510
H       -0.12406460      -2.87828804      -2.60893621
H       -3.07260261      -8.95881756      -5.11597917
H       -4.15916368      -7.91022716      -6.06865936
H       -0.88428985      -7.96793592      -8.22163765
H       -3.85511044      -8.29488976      -9.29131237
H       -5.10556889     -10.26403880     -10.11102746
H       -4.43097910     -12.54427148      -9.42295357
H       -1.22008257     -10.89104328      -7.07398673
C       -2.39039025     -13.17933801      -7.80430219
C       -2.06084666     -14.28974326      -7.46838969
Br      -1.52800255     -16.08517464      -6.92524760
C       -1.79214912       1.79214912       1.79214912
C       -2.82016930       1.21592714       2.53291846
C       -3.60973628       2.02157435       3.34997881
C       -3.36864343       3.39705112       3.42309668
C       -2.34876589       3.98781849       2.66748471
C       -1.55266367       3.16640795       1.85649966
C       -2.02039019       5.41195833       2.75458624
H       -0.96811768       5.66814739       2.64903172
C       -2.89551452       6.52638620       3.08372981
S       -4.59869840       6.59069639       2.92611962
C       -4.85989420       8.23901387       3.62381621
C       -3.51821376       8.80042349       3.90755248
C       -3.21108873       9.99203172       4.44324256
C       -4.22593051      10.96106888       4.85383525
C       -4.75727291      10.91426164       6.14792746
C       -5.74288253      11.82370359       6.53604338
C       -6.20177568      12.78233826       5.63268348
C       -5.67033229      12.82795444       4.34446114
C       -4.68551716      11.92288013       3.94906137
C       -2.44113807       7.86443551       3.53635115
O       -1.24773615       8.11174566       3.59471174
H       -3.00804261       0.14672339       2.48766055
H       -4.40890295       1.58029684       3.94040694
H       -3.98254977       3.99072986       4.09515207
H       -0.74068930       3.59643964       1.27415991
H       -5.40322962       8.84839887       2.89577084
H       -5.45611787       8.14568729       4.53624504
H       -2.17680745      10.29156053       4.60549543
H       -4.40562438      10.17294167       6.86274653
H       -6.15151277      11.78607092       7.54305144
H       -6.96903043      13.48755625       5.94161748
H       -4.27532086      11.96684668       2.94294504
C       -6.14499490      13.81717351       3.41186205
C       -6.54252483      14.64564447       2.63081032
Br      -7.18529711      15.98521196       1.36791572
C        1.79214912      -1.79214912       1.79214912
C        2.42099599      -2.90565168       1.24236723
C        3.23906310      -3.69609967       2.04612667
C        3.42484772      -3.37061520       3.39332831
C        2.78171776      -2.26321031       3.95914101
C        1.96901545      -1.46772582       3.13883002
C        2.99061078      -1.84863026       5.34769372
H        2.97301138      -0.77693638       5.53534904
C        3.33920345      -2.66942954       6.49699753
S        3.07458452      -4.34928061       6.69164928
C        3.86817602      -4.54984585       8.30470241
C        4.27867653      -3.19746056       8.75005263
C        4.91624157      -2.85103410       9.87908733
C        5.32642610      -3.82623330      10.88817524
C        6.57613159      -4.44954471      10.79378571
C        6.96166402      -5.39799045      11.74297503
C        6.09995856      -5.72775654      12.78908233
C        4.85601804      -5.10483756      12.88189226
C        4.46349183      -4.15638039      11.93758644
C        3.91413546      -2.16092085       7.76686843
O        4.06836200      -0.96091598       7.92491557
H        2.28807376      -3.15994076       0.19441204
H        3.74288717      -4.56230776       1.62441180
H        4.09520302      -3.98996065       3.98326804
H        1.47329231      -0.59008240       3.54791414
H        3.15073975      -4.99906230       8.99759728
H        4.73044112      -5.21385507       8.19375401
H        5.16707098      -1.81329830      10.09349412
H        7.25845088      -4.19888299       9.98397870
H        7.93436579      -5.87828945      11.66797990
H        6.40665590      -6.46674195      13.52480631
H        3.49222807      -3.67416803      12.01871648
C        3.96632987      -5.44621861      13.96148197
C        3.22121603      -5.73212524      14.86563835
Br       2.01642997      -6.19441207      16.32758275
C       -0.00445707       0.01189536      -1.78238275
H       -0.66409135       0.67374010      -2.43557963
H        0.65740317      -0.63156657      -2.45157240
C       -0.90989263      -0.90692880      -0.91072765
C        0.90977584       0.90977584      -0.90977584
C       -0.00465871       1.77757030       0.00794375
H       -0.66225468       2.44313916      -0.64384735
H        0.64322798       2.43503045       0.67728295
C       -1.78241447       0.00034974      -0.00472694
H       -2.45427497      -0.65498947       0.64260836
H       -2.43311707       0.67328779      -0.65473579
C       -0.91132561       0.90220522       0.91563759
C       -0.01476271      -0.02253852       1.78660255
H       -0.67934791      -0.69751639       2.42135241
H        0.63392994       0.61504881       2.47327442
C        0.01484550      -1.77751727      -0.01636693
H        0.67870853      -2.42144646      -0.68295456
H       -0.62264859      -2.45592969       0.64226336
C        1.78714474       0.01002794       0.00389507
H        2.44202412       0.67113390       0.66197326
H        2.45385902      -0.65136977      -0.64189061
C        0.91606151      -0.90478549       0.90901405
