154
Properties=species:S:1:pos:R:3 pbc="F F F"
C        1.79214912       1.79214912      -1.79214912
C        1.31163187       2.23684123      -3.02054180
C        2.11240741       3.05610146      -3.81278058
C        3.38750965       3.42679951      -3.37448208
C        3.88602601       2.96919927      -2.14884380
C        3.06777061       2.15386628      -1.35393441
C        5.18945413       3.37657126      -1.62090937
H        5.25434450       3.49027977      -0.54067253
C        6.38319937       3.76824983      -2.35418133
S        6.79440690       3.35706637      -3.96404114
C        8.33006999       4.30489976      -4.08775452
C        8.57375252       4.89979164      -2.75264556
C        9.58464145       5.69416534      -2.36755621
C       10.65115201       6.11489894      -3.27478369
C       10.50114309       7.27526387      -4.04305504
C       11.50793189       7.66753658      -4.92716103
C       12.66750438       6.90169744      -5.04759560
C       12.81540719       5.74680884      -4.28053185
Br      14.38681185       4.70845145      -4.44503296
C       11.81415859       5.34818371      -3.39511636
C        7.52116548       4.53339665      -1.78736260
O        7.52456484       4.82665072      -0.60297799
H        0.31870030       1.95982942      -3.36389683
H        1.74300602       3.41717737      -4.76942334
H        3.97257671       4.09319468      -4.00266031
H        3.42255606       1.80052383      -0.38820896
H        9.13947847       3.62907596      -4.37884491
H        8.20799462       5.07634966      -4.85370592
H        9.65237289       6.07270776      -1.34878276
H        9.60246613       7.88271891      -3.95612753
H       11.38910982       8.57102278      -5.52050254
H       13.44750706       7.21313345      -5.73756365
H       11.93867743       4.44701471      -2.79942044
C       -1.79214912      -1.79214912      -1.79214912
C       -1.77208565      -3.17369264      -1.62323661
C       -2.59189635      -3.97226267      -2.41713041
C       -3.42679016      -3.38754711      -3.37445396
C       -3.43982793      -2.00043453      -3.56380662
C       -2.61889060      -1.20463310      -2.75204759
C       -4.33794125      -1.33768895      -4.51130455
H       -4.71181382      -0.36022221      -4.21326076
C       -4.89722134      -1.85993241      -5.74847678
S       -4.27283509      -3.12534494      -6.71733439
C       -5.59112544      -3.17675828      -7.95484055
C       -6.52294449      -2.07052939      -7.63271585
C       -7.65563200      -1.72595127      -8.26477973
C       -8.16257472      -2.44706174      -9.43119819
C       -9.01086864      -3.54737710      -9.26121627
C       -9.47851933      -4.25216117     -10.37194900
C       -9.09974854      -3.86092970     -11.65611919
C       -8.25558605      -2.76389659     -11.82326523
Br      -7.74150982      -2.23474903     -13.56403741
C       -7.78407313      -2.05467569     -10.71870984
C       -6.08383073      -1.30929285      -6.44880116
O       -6.62860335      -0.30497359      -6.02061660
H       -1.13223574      -3.63448563      -0.87570519
H       -2.59137876      -5.05159932      -2.28662865
H       -4.07701589      -4.03739767      -3.95401815
H       -2.62415332      -0.12265343      -2.86448210
H       -5.14860074      -3.05144507      -8.94735353
H       -6.08942924      -4.14905307      -7.89956789
H       -8.26074583      -0.88591577      -7.92720180
H       -9.31579832      -3.86077939      -8.26473486
H      -10.13951727      -5.10487744     -10.23624043
H       -9.46785097      -4.41389622     -12.51645697
H       -7.12750691      -1.19918424     -10.85842142
C       -1.79214912       1.79214912       1.79214912
C       -2.72335985       2.64265019       1.20300485
C       -3.53813038       3.43114279       2.01201627
C       -3.41896038       3.36606334       3.40376751
C       -2.47252039       2.52721124       4.00433745
C       -1.66469992       1.72950863       3.18136274
C       -2.35000529       2.38097356       5.45595591
H       -2.07809637       1.39089121       5.81630921
C       -2.65985352       3.35084723       6.49492977
S       -2.72105187       5.05439757       6.34006497
C       -3.25117025       5.44727534       8.02427869
C       -3.28910740       4.16724035       8.76984198
C       -3.63799094       3.95935672      10.04901535
C       -4.06324551       5.03823572      10.93935342
C       -5.41256420       5.40516678      11.00173102
C       -5.81875775       6.45004021      11.83383154
C       -4.87853985       7.13254707      12.60571051
C       -3.53512499       6.76467950      12.54294338
Br      -2.26093397       7.69089019      13.58847210
C       -3.12135835       5.72200673      11.71409358
C       -2.89062433       3.02686671       7.92443370
O       -2.76257655       1.87766790       8.31394910
H       -2.82745545       2.69235279       0.12261831
H       -4.27560609       4.09149648       1.56250415
H       -4.09246105       3.97056965       4.00540100
H       -0.93480811       1.05412979       3.62235095
H       -2.53514282       6.14669470       8.46556182
H       -4.23865203       5.91622027       7.98317790
H       -3.62708438       2.96163310      10.48514593
H       -6.15605729       4.87866289      10.40659240
H       -6.86824514       6.73064843      11.88174157
H       -5.20175930       7.94478693      13.25165792
H       -2.07180873       5.44058567      11.67271817
C        1.79214912      -1.79214912       1.79214912
C        3.14484995      -1.49416552       1.92999943
C        3.94096156      -2.29028757       2.75004030
C        3.38254735      -3.37861380       3.42763009
C        2.02708625      -3.69663650       3.28034633
C        1.23198525      -2.88244826       2.46113778
C        1.38449957      -4.78899531       4.01343989
H        0.35103344      -4.62327339       4.31098996
C        1.97677306      -6.02306540       4.50579206
S        3.38767345      -6.80055973       3.92728123
C        3.44302638      -8.15681077       5.12288713
C        2.22761467      -8.03657464       5.96200041
C        1.84585912      -8.81103065       6.98947324
C        2.63267933      -9.95113424       7.45702106
C        3.62590333      -9.76752560       8.42603307
C        4.39449032     -10.84996347       8.85817571
C        4.17429237     -12.11922420       8.32328085
C        3.18364275     -12.30014337       7.35896175
Br       2.88638879     -14.02052932       6.63337816
C        2.41165633     -11.22383933       6.92196300
C        1.39294208      -6.88985149       5.55913117
O        0.30359415      -6.61531146       6.03528793
H        3.58393970      -0.64518920       1.41329765
H        4.99650365      -2.06049215       2.87261093
H        4.02513910      -3.95889575       4.08439686
H        0.17152693      -3.09508482       2.34467710
H        3.46213756      -9.10591946       4.57934231
H        4.35384551      -8.06275227       5.72145241
H        0.92290111      -8.61712626       7.53383604
H        3.80546781      -8.78283138       8.85301338
H        5.16347033     -10.70410213       9.61306268
H        4.77606325     -12.95759183       8.66454907
H        1.63992672     -11.37437889       6.17080697
C       -0.00445707       0.01189536      -1.78238275
H       -0.66409135       0.67374010      -2.43557963
H        0.65740317      -0.63156657      -2.45157240
C       -0.90989263      -0.90692880      -0.91072765
C        0.90977584       0.90977584      -0.90977584
C       -0.00465871       1.77757030       0.00794375
H       -0.66225468       2.44313916      -0.64384735
H        0.64322798       2.43503045       0.67728295
C       -1.78241447       0.00034974      -0.00472694
H       -2.45427497      -0.65498947       0.64260836
H       -2.43311707       0.67328779      -0.65473579
C       -0.91132561       0.90220522       0.91563759
C       -0.01476271      -0.02253852       1.78660255
H       -0.67934791      -0.69751639       2.42135241
H        0.63392994       0.61504881       2.47327442
C        0.01484550      -1.77751727      -0.01636693
H        0.67870853      -2.42144646      -0.68295456
H       -0.62264859      -2.45592969       0.64226336
C        1.78714474       0.01002794       0.00389507
H        2.44202412       0.67113390       0.66197326
H        2.45385902      -0.65136977      -0.64189061
C        0.91606151      -0.90478549       0.90901405
