194
Properties=species:S:1:pos:R:3 pbc="F F F"
C        1.79143506       1.79143506      -1.79143506
C        3.11068010       2.03279463      -1.42023901
C        3.90746090       2.86719474      -2.20675280
C        3.39828011       3.43096409      -3.38210703
C        2.06690367       3.19584070      -3.74648837
C        1.26618528       2.37266068      -2.94687103
S        4.39621321       4.57718075      -4.31788183
O        3.53433920       5.25709961      -5.26526951
O        5.18248693       5.34782686      -3.36371223
N        5.50471093       3.62056407      -5.18008833
C        5.41234944       3.18646008      -6.49199495
C        4.64800653       3.82965749      -7.49515582
C        3.32480493       3.65611321      -7.62495967
C        2.55001450       4.37094958      -8.64527060
C        1.54510982       5.25693349      -8.23338105
C        0.77414597       5.94466883      -9.17311843
C        1.00049150       5.75052178     -10.53442495
C        2.00316815       4.87388963     -10.94753229
C        2.77957801       4.18460150     -10.01316865
N        6.30234517       2.23201305      -6.70566348
C        7.01347019       2.08735247      -5.54493167
C        8.07822125       1.21741076      -5.25868098
C        8.67204093       1.26011578      -3.99226451
C        8.23716522       2.17559223      -3.03829362
C        7.19505799       3.06509220      -3.31569494
C        6.56930139       2.98005382      -4.57067928
H        3.52156921       1.59854063      -0.51082720
H        4.91306197       3.08602082      -1.86075099
H        1.63238807       3.66665730      -4.62381567
H        0.22608411       2.20415412      -3.21953891
H        5.19998413       4.42949420      -8.21629902
H        2.75113624       3.04670243      -6.93406005
H        1.36889344       5.43222784      -7.17349836
H        0.00106246       6.63354086      -8.84163573
H        0.39511986       6.28617831     -11.26111582
H        3.55514936       3.50091532     -10.34918791
H        8.43482273       0.52670830      -6.01572942
H        9.49135567       0.58422071      -3.75768530
H        8.72177381       2.20934629      -2.06374361
H        6.90732083       3.79928722      -2.56948413
C        2.23571236       4.67596190     -12.35478060
C        2.43046813       4.51019742     -13.53335106
Br       2.74537175       4.24217029     -15.43899981
C       -1.79143506      -1.79143506      -1.79143506
C       -1.86747032      -1.53853323      -3.15771019
C       -2.70042877      -2.32160464      -3.95937503
C       -3.42895641      -3.37918811      -3.40320672
C       -3.35952891      -3.62349216      -2.02621167
C       -2.53668606      -2.82598001      -1.22305092
S       -4.56723232      -4.30160898      -4.42243449
O       -5.42025079      -5.08582076      -3.55063677
O       -5.15682437      -3.36615408      -5.37104757
N       -3.60543159      -5.36080905      -5.33912269
C       -3.32092072      -6.69099912      -5.07888463
C       -4.13420007      -7.54404567      -4.29457411
C       -4.10054809      -7.55114596      -2.95418377
C       -4.98752654      -8.41333582      -2.16537232
C       -5.91652024      -7.81743147      -1.30147266
C       -6.76791661      -8.60279762      -0.52121901
C       -6.69610353      -9.99247460      -0.59686011
C       -5.77670564     -10.58847167      -1.45941276
C       -4.92381829      -9.80913934      -2.24439053
N       -2.31432961      -7.08513217      -5.84055992
C       -1.98325602      -6.02356791      -6.63893040
C       -0.99181957      -5.93296811      -7.62952531
C       -0.84630314      -4.73690114      -8.34121695
C       -1.69435536      -3.66085676      -8.09583895
C       -2.70210168      -3.74320989      -7.13053356
C       -2.80752264      -4.92862102      -6.38389082
H       -1.30412396      -0.72182213      -3.60499096
H       -2.78632519      -2.06311480      -5.01039379
H       -3.95796097      -4.40253215      -1.56236791
H       -2.49622561      -3.00352982      -0.15002171
H       -4.75117558      -8.25900417      -4.83559761
H       -3.47928573      -6.86477498      -2.38783801
H       -5.99632794      -6.73318752      -1.24510419
H       -7.48828310      -8.12920977       0.14125382
H       -7.35914569     -10.59847303       0.01520473
H       -4.20882423     -10.28698927      -2.90943909
H       -0.35318580      -6.78471543      -7.83935921
H       -0.07549322      -4.65362589      -9.10414258
H       -1.58065350      -2.74323735      -8.67097287
H       -3.37843783      -2.90526532      -6.99238903
C       -5.70534866     -12.02463687      -1.53646933
C       -5.64558718     -13.22742522      -1.60100421
Br      -5.54895793     -15.17223225      -1.70535166
C       -1.79143506       1.79143506       1.79143506
C       -1.22250906       2.85349769       2.48770698
C       -2.02084425       3.63883159       3.32173260
C       -3.39289280       3.38619639       3.43226205
C       -3.96004209       2.30945909       2.73973156
C       -3.15372372       1.51409253       1.91790073
S       -4.37680460       4.33261438       4.58185681
O       -5.65026466       3.65912871       4.74731494
O       -3.54166396       4.60921580       5.74314626
N       -4.64760776       5.83069176       3.82706381
C       -5.75899584       6.22886520       3.10294342
C       -7.05161110       5.67064573       3.25056301
C       -7.41717368       4.51855516       2.67014898
C       -8.74918173       3.93965333       2.87739962
C       -8.85269462       2.68639450       3.49633525
C      -10.10100570       2.09335584       3.69757169
C      -11.25770513       2.74845632       3.27927679
C      -11.15857955       3.99791141       2.66809911
C       -9.91358374       4.59794119       2.46582322
N       -5.47687477       7.33225534       2.43089159
C       -4.19678652       7.68299875       2.76596907
C       -3.43606320       8.78241542       2.33583437
C       -2.13929705       8.95109064       2.83403354
C       -1.62035290       8.06093379       3.76976438
C       -2.37355427       6.97556575       4.22672511
C       -3.65436629       6.78332631       3.68234189
H       -0.15769759       3.06424960       2.40898987
H       -1.53887623       4.42200254       3.89895501
H       -5.01111666       2.05911576       2.85262861
H       -3.59012554       0.66598762       1.39366397
H       -7.77484846       6.26179036       3.80913854
H       -6.72406329       3.91832044       2.08951499
H       -7.95922838       2.17095645       3.84443482
H      -10.16921056       1.12327428       4.18375420
H      -12.22620190       2.28046698       3.43574511
H       -9.85056541       5.57051080       1.98417637
H       -3.85586718       9.49148859       1.62990468
H       -1.53872103       9.79431144       2.50022922
H       -0.61652337       8.21621621       4.16212414
H       -1.96122912       6.32392625       4.99093681
C      -12.35545509       4.67316234       2.23783743
C      -13.35783836       5.23868499       1.87749327
Br     -14.97860733       6.15308728       1.29484723
C        1.79143506      -1.79143506       1.79143506
C        1.62426343      -3.17269996       1.76675035
C        2.40548883      -3.97755332       2.59836630
C        3.37770429      -3.40636558       3.42728136
C        3.53520593      -2.01538402       3.45864279
C        2.73887920      -1.21058898       2.63624881
S        4.29320767      -4.43932368       4.55874444
O        4.96486414      -3.57870400       5.51314018
O        3.38738781      -5.48010474       5.02653347
N        5.46714483      -5.22437815       3.61384035
C        6.79241242      -4.86492326       3.43346879
C        7.54078868      -4.08461297       4.34741819
C        7.46224143      -2.74698969       4.39664669
C        8.21490566      -1.96645655       5.38487247
C        7.50786341      -1.20339206       6.32416889
C        8.18675772      -0.43377039       7.27140514
C        9.58018815      -0.41910289       7.28614720
C       10.28664558      -1.18144784       6.35649665
C        9.61416132      -1.95530667       5.40788016
N        7.29657300      -5.53348513       2.40996358
C        6.31183915      -6.37214320       1.96177199
C        6.34726630      -7.29944856       0.90759813
C        5.21151127      -8.07217240       0.64073756
C        4.07169548      -7.94931434       1.43004125
C        4.02870808      -7.04876971       2.49836734
C        5.15402512      -6.23926686       2.72674250
H        0.87468632      -3.63145885       1.12479188
H        2.21152318      -5.04582105       2.60248955
H        4.24402656      -1.54473659       4.13409788
H        2.84800219      -0.12834037       2.67343458
H        8.25038355      -4.61992798       4.97546582
H        6.77972545      -2.18441923       3.76775403
H        6.41940454      -1.21902835       6.33618675
H        7.62752224       0.14983566       7.99855247
H       10.10300257       0.18431917       8.02373059
H       10.17748041      -2.54156788       4.68620430
H        7.24850895      -7.41437396       0.31437753
H        5.22579670      -8.78670959      -0.17924460
H        3.20237914      -8.57101969       1.22146489
H        3.14358788      -7.00686373       3.12564056
C       11.72644138      -1.16536626       6.37464722
C       12.93227036      -1.15189794       6.38984831
Br      14.88199384      -1.13012081       6.41442720
C       -0.00445707       0.01189536      -1.78238275
H       -0.66409135       0.67374010      -2.43557963
H        0.65740317      -0.63156657      -2.45157240
C       -0.90989263      -0.90692880      -0.91072765
C        0.90977584       0.90977584      -0.90977584
C       -0.00465871       1.77757030       0.00794375
H       -0.66225468       2.44313916      -0.64384735
H        0.64322798       2.43503045       0.67728295
C       -1.78241447       0.00034974      -0.00472694
H       -2.45427497      -0.65498947       0.64260836
H       -2.43311707       0.67328779      -0.65473579
C       -0.91132561       0.90220522       0.91563759
C       -0.01476271      -0.02253852       1.78660255
H       -0.67934791      -0.69751639       2.42135241
H        0.63392994       0.61504881       2.47327442
C        0.01484550      -1.77751727      -0.01636693
H        0.67870853      -2.42144646      -0.68295456
H       -0.62264859      -2.45592969       0.64226336
C        1.78714474       0.01002794       0.00389507
H        2.44202412       0.67113390       0.66197326
H        2.45385902      -0.65136977      -0.64189061
C        0.91606151      -0.90478549       0.90901405
