118
Properties=species:S:1:pos:R:3 pbc="F F F"
C        1.77701822       1.77701822      -1.77701822
C        1.56200835       3.11213482      -2.03090745
C        2.61943307       3.52784285      -2.87388742
C        3.41778806       2.41914078      -3.08776613
O        2.89568760       1.34298739      -2.42070652
C        4.64065951       2.27318519      -3.85432254
O        5.17159774       3.23714241      -4.39155053
N        5.10024164       0.97599727      -3.91361643
C        6.24503929       0.55329992      -4.53658080
S        7.39359624       1.59969047      -5.24273315
N        8.40673553       0.35971302      -5.69048509
C        7.82272784      -0.77787451      -5.30032658
N        6.59361658      -0.70977551      -4.63130307
C        8.47191911      -2.10831586      -5.56874120
C        7.90603273      -3.32820117      -5.25067743
C        8.74885744      -4.42425040      -5.61593944
C        9.91478667      -3.98192887      -6.18819814
Br      11.27698282      -5.12275597      -6.78151527
S       10.00511887      -2.29615909      -6.30884163
H        0.74868299       3.71666860      -1.65299494
H        2.79438126       4.51524126      -3.28223325
H        4.54524953       0.24815735      -3.48222609
H        6.93442352      -3.43436728      -4.78235393
H        8.50399871      -5.46768939      -5.45981725
C       -1.77701822      -1.77701822      -1.77701822
C       -1.97373261      -3.12773933      -1.60357868
C       -2.86574624      -3.53006479      -2.62535230
C       -3.15945745      -2.39957435      -3.36566317
O       -2.48459267      -1.32555119      -2.84923764
C       -4.02922038      -2.22545102      -4.51349585
O       -4.70604122      -3.15130971      -4.94293975
N       -3.98973213      -0.95522331      -5.04489990
C       -4.72999621      -0.50051181      -6.10441197
S       -5.95328939      -1.40576116      -6.87696930
N       -6.33922844      -0.18265406      -7.93505114
C       -5.51874104       0.83748550      -7.66392438
N       -4.59266301       0.69922963      -6.62171076
C       -5.58814854       2.11361263      -8.45780854
C       -4.73822866       3.18834055      -8.27862088
C       -5.03910831       4.26681815      -9.16825634
C       -6.10562553       3.95939265      -9.97482306
Br      -6.80590721       5.12941316     -11.25924808
S       -6.73168830       2.41156496      -9.69767807
H       -1.53538545      -3.74876729      -0.83419379
H       -3.25954697      -4.52143293      -2.81087586
H       -3.34528738      -0.28553149      -4.64481410
H       -3.93670131       3.20356666      -7.54927552
H       -4.50037108       5.20583154      -9.20158703
C       -1.77701822       1.77701822       1.77701822
C       -3.14674337       1.87153661       1.68677064
C       -3.54587627       2.78071851       2.69456855
C       -2.39375543       3.19074924       3.34019030
O       -1.30773499       2.58040094       2.77124557
C       -2.21256675       4.09850669       4.45709379
O       -3.17240453       4.59260187       5.03528428
N       -0.89065415       4.33695881       4.76224238
C       -0.42768859       5.12160987       5.78562154
S       -1.42629966       5.84284172       6.96687848
N       -0.14886201       6.52094837       7.78712327
C        0.96113669       6.18368679       7.12262981
N        0.84553440       5.37943050       5.98124804
C        2.31166730       6.65320592       7.59080582
C        3.49687948       6.39742542       6.92796304
C        4.62417254       6.96081476       7.60390426
C        4.23944555       7.61163603       8.74886546
Br       5.43745359       8.46242327       9.91077245
S        2.56806455       7.57327939       9.01258657
H       -3.78365393       1.34777933       0.98691328
H       -4.55004693       3.10567256       2.93613628
H       -0.17840251       3.92138347       4.17584700
H        3.55702178       5.83743912       6.00199283
H        5.64892048       6.88312310       7.26192396
C        1.77701822      -1.77701822       1.77701822
C        3.15229363      -1.80672690       1.74603009
C        3.54811586      -2.74297216       2.73007532
C        2.38878765      -3.23282304       3.30308428
O        1.30191127      -2.64537919       2.71209103
C        2.20059241      -4.19829578       4.36927905
O        3.15576780      -4.67571958       4.96880330
N        0.87892254      -4.50869057       4.60224224
C        0.40796888      -5.35942540       5.56752572
S        1.38571144      -6.08965724       6.76065118
N        0.10599403      -6.86063036       7.49030925
C       -0.98798515      -6.54236190       6.79080316
N       -0.85938295      -5.68194320       5.69258390
C       -2.33473999      -7.09214258       7.17494186
C       -3.50008956      -6.85858439       6.47001416
C       -4.62889750      -7.50178502       7.06765897
C       -4.26543484      -8.18716643       8.19932435
Br      -5.47298983      -9.14273821       9.26599374
S       -2.61087657      -8.08730291       8.54137507
H        3.79460590      -1.22361495       1.10012569
H        4.55457963      -3.03410026       3.00317587
H        0.17481544      -4.09832079       4.00249675
H       -3.54510071      -6.25963951       5.56787137
H       -5.64004783      -7.45368601       6.68248839
C       -0.00445707       0.01189536      -1.78238275
H       -0.66409135       0.67374010      -2.43557963
H        0.65740317      -0.63156657      -2.45157240
C       -0.90989263      -0.90692880      -0.91072765
C        0.90977584       0.90977584      -0.90977584
C       -0.00465871       1.77757030       0.00794375
H       -0.66225468       2.44313916      -0.64384735
H        0.64322798       2.43503045       0.67728295
C       -1.78241447       0.00034974      -0.00472694
H       -2.45427497      -0.65498947       0.64260836
H       -2.43311707       0.67328779      -0.65473579
C       -0.91132561       0.90220522       0.91563759
C       -0.01476271      -0.02253852       1.78660255
H       -0.67934791      -0.69751639       2.42135241
H        0.63392994       0.61504881       2.47327442
C        0.01484550      -1.77751727      -0.01636693
H        0.67870853      -2.42144646      -0.68295456
H       -0.62264859      -2.45592969       0.64226336
C        1.78714474       0.01002794       0.00389507
H        2.44202412       0.67113390       0.66197326
H        2.45385902      -0.65136977      -0.64189061
C        0.91606151      -0.90478549       0.90901405
