141
Properties=species:S:1:pos:R:3 pbc="F F F"
C        0.00000000       0.00000000       0.00000000
C        0.87196504       0.87196504      -0.87196504
C        1.24357945       0.53374363      -2.14859515
C        2.08200458       1.53819640      -2.71994399
C        2.29788673       2.59391671      -1.85332900
S        1.48652790       2.36847057      -0.36609256
C        3.14937169       3.78303495      -2.19907859
N        3.28399038       4.82983429      -1.37377266
S        4.29021140       5.92040861      -2.14470281
C        4.50490221       4.91009140      -3.50248204
N        3.82569421       3.79751539      -3.41685088
N        5.33542161       5.35514831      -4.48631959
C        5.66886079       4.56434997      -5.56414093
O        5.27511276       3.41775322      -5.75061558
C        6.58354404       5.22172803      -6.48476519
O        6.88836815       6.54438065      -6.29053891
C        7.73469707       6.91433771      -7.28994115
C        8.26688653       8.19025225      -7.46238249
C        9.11890121       8.35695488      -8.55742284
C        9.41915908       7.30270995      -9.42252545
C        8.86487258       6.03142168      -9.21737969
C        7.99824259       5.83574476      -8.12550927
C        7.25431292       4.73688115      -7.60078629
C        7.19900457       3.34767888      -8.12635458
H        0.94548991      -0.37672493      -2.65391101
H        2.50343982       1.49034578      -3.71875462
H        5.75745187       6.27004004      -4.40096856
H        8.02446371       8.99809901      -6.78367422
H       10.08631869       7.45644988     -10.26818190
H        9.10162662       5.21667055      -9.89585997
H        7.82877888       3.22635113      -9.01254179
H        6.17397297       3.08274466      -8.40427136
H        7.54900455       2.63922563      -7.36828957
C        9.70134938       9.65148500      -8.79938546
C       10.18914972      10.73565398      -9.00202915
Br      10.97788161      12.48866351      -9.32968685
C       -0.87196504      -0.87196504      -0.87196504
C       -1.45482076      -2.03497616      -0.43612130
C       -2.20418527      -2.65422746      -1.48173224
C       -2.16174018      -1.92655726      -2.65683500
S       -1.22693968      -0.50571558      -2.48843577
C       -2.85887497      -2.35532617      -3.91728409
N       -2.86739285      -1.59784526      -5.02235923
S       -3.75707447      -2.43145769      -6.16679066
C       -4.03658079      -3.75437503      -5.12651983
N       -3.51572093      -3.58357419      -3.94076537
N       -4.73978082      -4.80669302      -5.63041568
C       -4.91462283      -5.96981798      -4.91291088
O       -4.47318155      -6.18194509      -3.78835492
C       -5.67531420      -6.97326885      -5.64145421
O       -6.24889758      -6.63448678      -6.83990336
C       -6.91182203      -7.73253558      -7.29461832
C       -7.64390559      -7.79746118      -8.47815450
C       -8.24840261      -9.02563225      -8.75924409
C       -8.11993883     -10.12132857      -7.90312709
C       -7.37460066     -10.01894252      -6.72013077
C       -6.75938784      -8.79184399      -6.40826479
C       -5.95407595      -8.30013627      -5.33776815
C       -5.49419591      -9.04330888      -4.13553323
H       -1.35517816      -2.43355467       0.56605684
H       -2.75028222      -3.58598712      -1.37627089
H       -5.10174911      -4.75364712      -6.57306423
H       -7.73511959      -6.93930185      -9.13181550
H       -8.59910705     -11.06809871      -8.14374471
H       -7.28085241     -10.87518791      -6.05811682
H       -5.84557363     -10.07923546      -4.14286272
H       -5.86925748      -8.56816670      -3.22356482
H       -4.40010619      -9.06196698      -4.09444658
C       -9.02507197      -9.16313037      -9.96401750
C       -9.67553256      -9.27828506     -10.97301523
Br     -10.72727231      -9.46448044     -12.60447922
C       -0.87196504       0.87196504       0.87196504
C       -1.45397239       2.03551635       0.43642949
C       -2.20356314       2.65461054       1.48197129
C       -2.16212768       1.92629471       2.65671005
S       -1.22799173       0.50504664       2.48805265
C       -2.85970378       2.35476489       3.91701655
N       -2.86920992       1.59670256       5.02168485
S       -3.75905649       2.43017988       6.16608646
C       -4.03730892       3.75379697       5.12636976
N       -3.51591051       3.58334872       3.94080126
N       -4.74021800       4.80622058       5.63045094
C       -4.91406221       5.96981859       4.91347089
O       -4.47191172       6.18230786       3.78926198
C       -5.67460775       6.97328644       5.64214306
O       -6.24900670       6.63417318       6.84010783
C       -6.91158985       7.73233230       7.29505378
C       -7.64426689       7.79701862       8.47823576
C       -8.24826145       9.02536106       8.75965643
C       -8.11876216      10.12144301       7.90418931
C       -7.37285068      10.01928893       6.72153434
C       -6.75812342       8.79202966       6.40934353
C       -5.95250445       8.30046251       5.33901341
C       -5.49159230       9.04402856       4.13741717
H       -1.35358653       2.43457345      -0.56548399
H       -2.74910973       3.58671570       1.37671480
H       -5.10271460       4.75286679       6.57287908
H       -7.73628296       6.93856122       9.13139276
H       -8.59755575      11.06833956       8.14505516
H       -7.27829694      10.87583547       6.06002472
H       -5.84242432      10.08013744       4.14511005
H       -5.86642179       8.56956929       3.22499791
H       -4.39747117       9.06212780       4.09692077
C       -9.02549705       9.16263229       9.96409050
C       -9.67643186       9.27759694      10.97280404
Br     -10.72893839       9.46348506      12.60380852
C        0.87196504      -0.87196504       0.87196504
C        1.31389546      -0.49663494       2.11538783
C        2.13341581      -1.51212081       2.69460836
C        2.26558334      -2.61224452       1.86730458
S        1.39934103      -2.41440625       0.40734374
C        3.08028274      -3.82221111       2.22899138
N        3.13355234      -4.90806976       1.44597523
S        4.12574893      -6.00848104       2.22109285
C        4.44320687      -4.95191371       3.52235507
N        3.80874955      -3.81493824       3.41637270
N        5.29690584      -5.39118498       4.48879869
C        5.71113891      -4.57088514       5.51532764
O        5.37512206      -3.40105970       5.66729980
C        6.63701735      -5.22849678       6.42452313
O        6.87645458      -6.57042901       6.27640412
C        7.74981446      -6.93478255       7.25437892
C        8.23444360      -8.22457619       7.46050148
C        9.12635755      -8.38224832       8.52467307
C        9.50922538      -7.30656441       9.32860469
C        9.00089317      -6.02179722       9.09098356
C        8.09576315      -5.83442232       8.02931115
C        7.37663976      -4.72691615       7.48842446
C        7.40377719      -3.31555487       7.95370597
H        1.07747268       0.44680950       2.59201281
H        2.60040877      -1.44062688       3.67150458
H        5.67548266      -6.32670180       4.42627600
H        7.92804075      -9.04897473       6.82922145
H       10.20611805      -7.45369068      10.15114174
H        9.30192116      -5.19026549       9.72197048
H        8.07683988      -3.18475213       8.80607980
H        6.40426948      -2.99382950       8.26289002
H        7.74957655      -2.65617671       7.15076649
C        9.66344450      -9.68989894       8.79887640
C       10.11325482     -10.78505634       9.02852169
Br      10.84056006     -12.55583322       9.39983869
