133
Properties=species:S:1:pos:R:3 pbc="F F F"
C        0.00000000       0.00000000       0.00000000
C        0.87196504       0.87196504      -0.87196504
C        1.24357945       0.53374363      -2.14859515
C        2.08200458       1.53819640      -2.71994399
C        2.29788673       2.59391671      -1.85332900
S        1.48652790       2.36847057      -0.36609256
C        3.14937169       3.78303495      -2.19907859
N        3.28399038       4.82983429      -1.37377266
S        4.29021140       5.92040861      -2.14470281
C        4.50490221       4.91009140      -3.50248204
N        3.82569421       3.79751539      -3.41685088
N        5.33542161       5.35514831      -4.48631959
C        5.66886079       4.56434997      -5.56414093
O        5.27511276       3.41775322      -5.75061558
C        6.58354404       5.22172803      -6.48476519
O        6.88836815       6.54438065      -6.29053891
C        7.73469707       6.91433771      -7.28994115
C        8.26688653       8.19025225      -7.46238249
C        9.11890121       8.35695488      -8.55742284
Br       9.88482454      10.05927085      -8.87560534
C        9.41915908       7.30270995      -9.42252545
C        8.86487258       6.03142168      -9.21737969
C        7.99824259       5.83574476      -8.12550927
C        7.25431292       4.73688115      -7.60078629
C        7.19900457       3.34767888      -8.12635458
H        0.94548991      -0.37672493      -2.65391101
H        2.50343982       1.49034578      -3.71875462
H        5.75745187       6.27004004      -4.40096856
H        8.02446371       8.99809901      -6.78367422
H       10.08631869       7.45644988     -10.26818190
H        9.10162662       5.21667055      -9.89585997
H        7.82877888       3.22635113      -9.01254179
H        6.17397297       3.08274466      -8.40427136
H        7.54900455       2.63922563      -7.36828957
C       -0.87196504      -0.87196504      -0.87196504
C       -1.16852313      -2.17893909      -0.57845601
C       -1.99500269      -2.75511732      -1.59002497
C       -2.29343901      -1.85512714      -2.59656629
S       -1.58191814      -0.32752797      -2.31164491
C       -3.14054314      -2.20264782      -3.78829427
N       -3.47975796      -1.29462729      -4.71321208
S       -4.42687013      -2.08945410      -5.83899859
C       -4.28902941      -3.58975559      -5.03869064
N       -3.58585768      -3.51381255      -3.94039025
N       -4.89872240      -4.66286936      -5.61529775
C       -4.74637900      -5.93708401      -5.11388868
O       -4.07085770      -6.23747462      -4.13514925
C       -5.46231753      -6.93805725      -5.88966248
O       -6.30007302      -6.52837623      -6.89483845
C       -6.85410816      -7.64594768      -7.43892009
C       -7.77832254      -7.65990027      -8.48129846
C       -8.22199016      -8.92002813      -8.89126066
Br      -9.48426605      -9.03754405     -10.29789063
C       -7.76016481     -10.09322751      -8.29100216
C       -6.82917446     -10.04037645      -7.24412303
C       -6.36909529      -8.78414472      -6.80625660
C       -5.46338322      -8.32482751      -5.80376963
C       -4.67070113      -9.14850296      -4.85383393
H       -0.81774073      -2.70555775       0.30062249
H       -2.35566141      -3.77849882      -1.57837999
H       -5.43730356      -4.53039886      -6.46075805
H       -8.12771244      -6.74193258      -8.93659192
H       -8.11949803     -11.06333272      -8.62811972
H       -6.47604363     -10.95733676      -6.78077675
H       -4.84763187     -10.21776683      -5.00227310
H       -4.93599045      -8.90476581      -3.82023273
H       -3.60004179      -8.96478540      -4.99169255
C       -0.87196504       0.87196504       0.87196504
C       -1.13451555       2.19091930       0.60048337
C       -1.97025760       2.76330937       1.60657801
C       -2.30920687       1.84893603       2.58698955
S       -1.62407648       0.31271442       2.28430013
C       -3.17426415       2.18941864       3.76780244
N       -3.55238491       1.26961746       4.66559496
S       -4.50655515       2.06074683       5.78802084
C       -4.31991471       3.57426968       5.02329125
N       -3.59501133       3.50637142       3.93867774
N       -4.91912588       4.64787045       5.60989319
C       -4.72919224       5.92879579       5.13936366
O       -4.02656806       6.23513525       4.18177825
C       -5.44041056       6.92837819       5.92124852
O       -6.30806850       6.51573437       6.89948484
C       -6.85000945       7.63325970       7.45570678
C       -7.79595760       7.64513472       8.47842895
C       -8.22168769       8.90560229       8.90598897
Br      -9.51120479       9.02059503      10.28790091
C       -7.72241343      10.08097735       8.34100369
C       -6.77041548      10.03017050       7.31308797
C       -6.32759824       8.77383211       6.85806626
C       -5.41039173       8.31635225       5.86523638
C       -4.58024896       9.14260862       4.95018045
H       -0.75385990       2.72827640      -0.25946031
H       -2.30892796       3.79423836       1.60937390
H       -5.47846204       4.50923545       6.44076297
H       -8.17434515       6.72551009       8.90638169
H       -8.06839263      11.05127349       8.69128434
H       -6.38813652      10.94887739       6.87714323
H       -4.73775497      10.21206783       5.11784900
H       -4.82829732       8.92648440       3.90620728
H       -3.51691761       8.93301162       5.10659052
C        0.87196504      -0.87196504       0.87196504
C        1.70555464      -0.37740988       1.84295371
C        2.41802553      -1.43165977       2.49045968
C        2.08353315      -2.67514783       1.98645146
S        0.91383808      -2.56175111       0.74550183
C        2.69095968      -3.95660286       2.48392270
N        2.29753152      -5.15579700       2.03426881
S        3.20757654      -6.29546017       2.85228611
C        4.08421661      -5.11536551       3.71789353
N        3.70031671      -3.89754073       3.44220305
N        5.05634308      -5.55628999       4.56425644
C        5.89883059      -4.68245044       5.21607066
O        5.87238215      -3.46072045       5.11037897
C        6.87688974      -5.36009529       6.05305222
O        6.77735390      -6.71616091       6.22977290
C        7.78692409      -7.08970589       7.06234596
C        8.02523416      -8.38886324       7.50542387
C        9.11946049      -8.55527863       8.35853983
Br       9.51705390     -10.28561598       9.01703084
C        9.92575133      -7.48028105       8.73836210
C        9.65553395      -6.18603124       8.27210876
C        8.55586876      -5.98760381       7.41602404
C        7.96754486      -4.86629763       6.75813787
C        8.41852746      -3.45077664       6.80373392
H        1.81333024       0.67333696       2.08268271
H        3.13811258      -1.28545718       3.28897046
H        5.19670751      -6.55082893       4.68092402
H        7.39098396      -9.21239772       7.20285525
H       10.77321591      -7.63465901       9.40307556
H       10.28616854      -5.35439702       8.57359158
H        9.31055284      -3.33150897       7.42560999
H        7.63296641      -2.81057769       7.21744490
H        8.66328976      -3.09618663       5.79704335
