137
Properties=species:S:1:pos:R:3 pbc="F F F"
C        0.00000000       0.00000000       0.00000000
C        0.88126893       0.88126893      -0.88126893
C        2.01819365       1.48252070      -0.34176231
C        2.83489270       2.28858457      -1.14383752
C        2.51354455       2.49946073      -2.48668134
N        3.27126152       3.30578724      -3.36362468
C        4.46201730       3.92949928      -3.08827830
O        5.15516116       3.84015031      -2.08371545
C        5.02386765       4.75061409      -4.16813030
S        3.92184917       5.80163922      -4.92981174
C        5.26720070       6.61686616      -5.81070268
S        4.85477029       7.81077565      -6.90435282
N        6.51245622       6.05173800      -5.44305781
C        6.37897548       4.99175028      -4.56699864
N        7.42040268       4.25445661      -4.12252167
C        8.71109770       4.48112292      -4.50401873
O        9.63059041       3.77060711      -4.11719335
C        8.93710166       5.64682350      -5.39576715
C       10.26588944       5.94927011      -5.73676485
C       10.53328166       7.06190575      -6.51819797
Br      12.31422681       7.49599264      -6.97077880
C        9.49003400       7.86848032      -6.95320371
C        8.16234108       7.55654296      -6.61640740
C        7.84589976       6.43334555      -5.84246390
C        1.36030794       1.89072504      -3.00114647
F        1.03390588       2.08415106      -4.28864326
C        0.54537651       1.08137873      -2.21556610
H        2.28119491       1.33463238       0.70384481
H        3.70536639       2.74590746      -0.68328924
H        2.86904134       3.44552856      -4.28769694
H        7.27140978       3.50404689      -3.45342637
H       11.07870781       5.32164787      -5.37658323
H        9.69081390       8.75525495      -7.55132903
H        7.42151438       8.25848912      -6.97316596
H       -0.33457427       0.62239426      -2.65423082
C       -0.88126893      -0.88126893      -0.88126893
C       -0.36917920      -1.40530011      -2.06799735
C       -1.16874793      -2.21842359      -2.88014329
C       -2.48458787      -2.50535706      -2.50974169
N       -3.36442249      -3.30354017      -3.27271077
C       -3.06765878      -3.98757484      -4.42456125
O       -1.98033214      -4.13133285      -4.96736194
C       -4.18220895      -4.71096111      -5.04944198
S       -5.63064560      -3.82771733      -5.19493719
C       -6.34335504      -5.11663306      -6.23478143
S       -7.93047611      -4.92066529      -6.71875736
N       -5.40574296      -6.15683650      -6.44467257
C       -4.22444185      -5.95657285      -5.75670970
N       -3.20381474      -6.84202523      -5.75154100
C       -3.24398366      -8.03005359      -6.42220210
O       -2.32012755      -8.83210266      -6.36616065
C       -4.45960988      -8.28354158      -7.23654085
C       -4.48948390      -9.46227838      -8.00016212
C       -5.57610271      -9.71534836      -8.82193431
Br      -5.62564639     -11.28460280      -9.87074907
C       -6.62125125      -8.80343546      -8.88703132
C       -6.59019610      -7.63036796      -8.11472738
C       -5.51954620      -7.34285400      -7.25930902
C       -2.97712860      -1.95837217      -1.31667868
F       -4.24013589      -2.22077369      -0.94579063
C       -2.18932134      -1.15529797      -0.49770203
H        0.65168689      -1.18772785      -2.37594151
H       -0.73556394      -2.59867400      -3.80032514
H       -4.32122031      -3.35110889      -2.92993764
H       -2.34280553      -6.63214741      -5.25393010
H       -3.65776941     -10.16274414      -7.95642537
H       -7.47030849      -8.98345198      -9.54363741
H       -7.43189159      -6.96647314      -8.25480473
H       -2.60624917      -0.75753616       0.42173453
C       -0.88126893       0.88126893       0.88126893
C       -0.91421097       2.25931303       0.66895267
C       -1.72320691       3.07476808       1.46933981
C       -2.49763203       2.51432042       2.48773417
N       -3.33046535       3.26079122       3.34941686
C       -3.58760873       4.60707277       3.28511338
O       -3.24033834       5.40964613       2.42904245
C       -4.46027903       5.14704944       4.33528357
S       -4.08214559       4.65138662       5.91976792
C       -5.24501165       5.84924370       6.60051418
S       -5.46073210       5.85183405       8.25733262
N       -5.84669025       6.59945277       5.56110901
C       -5.44696856       6.18583794       4.30491790
N       -5.93133180       6.70894715       3.15710201
C       -6.87330283       7.69615656       3.12677996
O       -7.32447566       8.12277430       2.07114090
C       -7.30275181       8.23453336       4.44240714
C       -8.21076217       9.30639583       4.43476640
C       -8.59655904       9.88216727       5.63465907
Br      -9.80087051      11.33632571       5.64380203
C       -8.08156579       9.39962725       6.83052499
C       -7.18043833       8.32191272       6.83294040
C       -6.77622433       7.70042501       5.64505987
C       -2.43887447       1.12774207       2.68556291
F       -3.17393858       0.57153674       3.66122490
C       -1.64449774       0.30645943       1.89136418
H       -0.31310847       2.71460155      -0.11572754
H       -1.71323282       4.14350400       1.27782627
H       -3.76345624       2.73415270       4.10465790
H       -5.58050780       6.39042019       2.25795505
H       -8.59555218       9.68967342       3.49171332
H       -8.36332243       9.85710091       7.77697454
H       -6.80943452       8.03631142       7.80742352
H       -1.63301727      -0.76335593       2.07238946
C        0.88126893      -0.88126893       0.88126893
C        1.03031827      -0.57779737       2.23436103
C        1.83285353      -1.38325676       3.05120451
C        2.49259840      -2.49168605       2.51540217
N        3.33035160      -3.34950617       3.26081567
C        3.56547409      -3.30249118       4.61182961
O        3.03493185      -2.59030612       5.45378895
C        4.51977388      -4.28857444       5.13426372
S        5.96483553      -4.44167689       4.24678772
C        6.68141327      -5.47280201       5.54055425
S        8.20306851      -6.10433717       5.26249308
N        5.77158157      -5.62007648       6.61559398
C        4.55938230      -5.00175771       6.37658439
N        3.51226337      -5.05630129       7.22881631
C        3.54765491      -5.73773053       8.41085391
O        2.56938291      -5.80434190       9.14466605
C        4.84220833      -6.37416828       8.76331570
C        4.92779864      -7.01220566      10.01192010
C        6.13157472      -7.56990669      10.41190397
Br       6.27170973      -8.41452960      12.09475892
C        7.24077902      -7.49062274       9.58031627
C        7.14734381      -6.85892275       8.32902489
C        5.94683183      -6.29621203       7.87866535
C        2.33289978      -2.76876314       1.15051653
F        2.96137204      -3.82810988       0.61721828
C        1.53173537      -1.97989339       0.33069259
H        0.52893845       0.28517464       2.66821867
H        1.93029709      -1.10741012       4.09685586
H        3.81960302      -4.06057732       2.72208649
H        2.65192953      -4.55716811       7.01978540
H        4.05812656      -7.05402487      10.66478748
H        8.19572657      -7.90855326       9.89311805
H        8.06915317      -6.81842432       7.76559196
H        1.42846172      -2.23298507      -0.71939598
