158
Properties=species:S:1:pos:R:3 pbc="F F F"
C        1.79117295       1.79117295      -1.79117295
C        2.92809768       2.39242473      -1.25166634
C        3.74479673       3.19848860      -2.05374154
C        3.42344857       3.40936475      -3.39658537
N        4.18116554       4.21569126      -4.27352870
C        5.37192132       4.83940330      -3.99818233
O        6.06506519       4.75005434      -2.99361948
C        5.93377168       5.66051811      -5.07803432
S        4.83175320       6.71154324      -5.83971576
C        6.17710472       7.52677019      -6.72060670
S        5.76467432       8.72067967      -7.81425685
N        7.42236025       6.96164203      -6.35296183
C        7.28887951       5.90165430      -5.47690266
N        8.33030670       5.16436064      -5.03242570
C        9.62100173       5.39102695      -5.41392275
O       10.54049443       4.68051113      -5.02709737
C        9.84700568       6.55672752      -6.30567118
C       11.17579346       6.85917413      -6.64666888
C       11.44318569       7.97180978      -7.42810199
Br      13.22413084       8.40589666      -7.88068282
C       10.39993802       8.77838435      -7.86310773
C        9.07224511       8.46644698      -7.52631142
C        8.75580379       7.34324958      -6.75236793
C        2.27021197       2.80062906      -3.91105050
F        1.94380991       2.99405509      -5.19854729
C        1.45528053       1.99128276      -3.12547012
H        3.19109893       2.24453640      -0.20605921
H        4.61527041       3.65581148      -1.59319326
H        3.77894536       4.35543258      -5.19760097
H        8.18131381       4.41395091      -4.36333040
H       11.98861184       6.23155190      -6.28648725
H       10.60071793       9.66515897      -8.46123305
H        8.33141840       9.16839314      -7.88306999
H        0.57532976       1.53229828      -3.56413484
C       -1.79117295      -1.79117295      -1.79117295
C       -2.99133761      -1.28804494      -2.29280619
C       -3.80366099      -2.08760305      -3.10576282
C       -3.41991659      -3.39455360      -3.41492850
N       -4.18182388      -4.27390741      -4.21465422
C       -5.34642083      -3.98351324      -4.87957288
O       -5.90525333      -2.90168814      -5.00179753
C       -5.96620272      -5.09669019      -5.60943119
S       -6.08102425      -6.55835556      -4.74363239
C       -7.12844769      -7.26786417      -6.02816974
S       -7.58898527      -8.86368679      -5.84693877
N       -7.36435002      -6.31959161      -7.05302248
C       -6.68930239      -5.13199754      -6.84613654
N       -6.70921712      -4.09989830      -7.71797762
C       -7.39498042      -4.13341002      -8.89756099
O       -7.36166032      -3.19848164      -9.68796098
C       -8.19663843      -5.35630188      -9.15646408
C       -8.97535729      -5.38087392     -10.32540526
C       -9.78612916      -6.47488471     -10.58208359
Br     -10.85490998      -6.51779493     -12.13800542
C       -9.82546099      -7.53264137      -9.68332774
C       -9.03815154      -7.50669919      -8.52015279
C       -8.19307402      -6.42865915      -8.22968812
C       -2.21336993      -3.87835227      -2.89016933
F       -1.82950504      -5.13279372      -3.17411352
C       -1.39419637      -3.09033162      -2.08750542
H       -3.30969672      -0.27428226      -2.05771557
H       -4.73438791      -1.66171528      -3.46817197
H       -3.82722688      -5.22537478      -4.27937726
H       -6.22017206      -3.23518891      -7.50323415
H       -8.95178847      -4.53956282     -11.01529970
H      -10.47323427      -8.38789843      -9.86597725
H       -9.15839835      -8.35878797      -7.86569521
H       -0.46419516      -3.50020497      -1.70736275
C       -1.79117295       1.79117295       1.79117295
C       -1.56015964       1.84654326       3.16548584
C       -2.36045847       2.65575046       3.98081794
C       -3.39740758       3.40790985       3.42408127
N       -4.26028813       4.23912056       4.17097681
C       -4.18086973       4.51613642       5.51250079
O       -3.30887479       4.19220745       6.30765676
C       -5.23564138       5.38163112       6.05505161
S       -6.82137699       4.97448557       5.58714964
C       -7.50173059       6.14456499       6.77818602
S       -9.16123532       6.33719011       6.80118541
N       -6.46057878       6.77121294       7.50517238
C       -5.20475001       6.38323066       7.07945579
N       -4.05671569       6.89088757       7.57948977
C       -4.02595474       7.84704784       8.55294884
O       -2.97095472       8.31887259       8.95827563
C       -5.33988932       8.26568651       9.10382855
C       -5.33014552       9.18877312      10.16271783
C       -6.52723032       9.56590966      10.74995748
Br      -6.53312686      10.79040810      12.18717536
C       -7.72230694       9.02753251      10.29159065
C       -7.72700527       8.11131756       9.22668069
C       -6.54230706       7.71495402       8.59416021
C       -3.61369030       3.32681039       2.04139083
F       -4.60730004       4.04027200       1.48884025
C       -2.81986649       2.53205092       1.22011601
H       -0.76079373       1.26292908       3.61797174
H       -2.15394778       2.66355172       5.04677566
H       -5.02883910       4.65405811       3.64908170
H       -3.15722666       6.54816147       7.25320699
H       -4.38737509       9.59204659      10.52722930
H       -8.66617675       9.30250940      10.75842380
H       -8.70003317       7.72277002       8.96007834
H       -3.01560282       2.50293024       0.15322982
C        1.79117295      -1.79117295       1.79117295
C        1.20518435      -2.75163189       2.61537250
C        2.00598458      -3.56754858       3.42349371
C        3.39503845      -3.42131918       3.41304107
N        4.27682065      -4.19025152       4.20331334
C        3.94644841      -5.23919674       5.02386181
O        2.85981121      -5.78410840       5.16481939
C        5.05433400      -5.84367134       5.77431877
S        6.09482537      -4.74008717       6.54809966
C        6.90717272      -6.08501069       7.43229820
S        8.20665529      -5.68827217       8.40468338
N        6.30595539      -7.32490209       7.10610662
C        5.30879629      -7.20075990       6.15788028
N        4.63296777      -8.25132298       5.64280229
C        4.87645427      -9.54451808       6.00497907
O        4.27657520     -10.48045531       5.49107243
C        5.89267598      -9.74830421       7.06842419
C        6.10264221     -11.06334614       7.51564812
C        6.99763722     -11.29838929       8.54707095
Br       7.27887230     -13.05661527       9.17522275
C        7.67450763     -10.23586301       9.13105946
C        7.46714047      -8.92371292       8.67415012
C        6.58418078      -8.64297940       7.62426111
C        3.95743768      -2.44215452       2.58229932
F        5.29028583      -2.28511077       2.56101568
C        3.17211792      -1.63079428       1.76912122
H        0.12435137      -2.87596467       2.64137851
H        1.51030365      -4.29637229       4.05759921
H        5.25489933      -3.91263784       4.16444175
H        3.88598230      -8.10283905       4.96977377
H        5.55453586     -11.88798338       7.06413175
H        8.36517366     -10.40749427       9.95444202
H        8.01358700      -8.15977349       9.20952104
H        3.64728914      -0.88969198       1.13478176
C       -0.00445707       0.01189536      -1.78238275
H       -0.66409135       0.67374010      -2.43557963
H        0.65740317      -0.63156657      -2.45157240
C       -0.90989263      -0.90692880      -0.91072765
C        0.90977584       0.90977584      -0.90977584
C       -0.00465871       1.77757030       0.00794375
H       -0.66225468       2.44313916      -0.64384735
H        0.64322798       2.43503045       0.67728295
C       -1.78241447       0.00034974      -0.00472694
H       -2.45427497      -0.65498947       0.64260836
H       -2.43311707       0.67328779      -0.65473579
C       -0.91132561       0.90220522       0.91563759
C       -0.01476271      -0.02253852       1.78660255
H       -0.67934791      -0.69751639       2.42135241
H        0.63392994       0.61504881       2.47327442
C        0.01484550      -1.77751727      -0.01636693
H        0.67870853      -2.42144646      -0.68295456
H       -0.62264859      -2.45592969       0.64226336
C        1.78714474       0.01002794       0.00389507
H        2.44202412       0.67113390       0.66197326
H        2.45385902      -0.65136977      -0.64189061
C        0.91606151      -0.90478549       0.90901405
