141
Properties=species:S:1:pos:R:3 pbc="F F F"
C        0.00000000       0.00000000       0.00000000
C        0.88120583       0.88120583      -0.88120583
C        0.30516786       1.86856264      -1.67229071
C        1.11675066       2.66055920      -2.49231894
C        2.50912677       2.47280381      -2.54525406
C        3.06271962       1.48736627      -1.71782767
C        2.25795584       0.69233939      -0.89316151
N        3.25924656       3.26803756      -3.43363398
C        4.52081959       3.06241936      -3.88466438
S        5.07036075       3.98146199      -5.24195453
C        6.57292183       3.14798739      -5.21237385
C        6.54503848       2.23895880      -4.17731971
N        7.49475963       1.35726177      -3.83327109
N        5.40728637       2.20915784      -3.42560441
C        7.57248181       3.46432962      -6.20712738
O        7.30370218       3.83758107      -7.34838678
C        9.02132021       3.33934060      -5.87485795
C        9.90681020       2.91504046      -6.87666086
C       11.27025355       2.78676276      -6.60129550
C       11.74958845       3.09289183      -5.32852912
C       10.88181385       3.53730838      -4.33218023
C        9.51851762       3.67141649      -4.60613943
H       -0.76961712       2.02697058      -1.66787412
H        0.64108697       3.41928632      -3.10885664
H        4.13495746       1.31415875      -1.69390469
H        2.72249522      -0.07084288      -0.27378964
H        2.70768924       3.93891725      -3.95397412
H        7.22412807       0.65034850      -3.15337276
H        8.18812989       1.02201499      -4.49279336
H        9.53655744       2.68411310      -7.87470277
H       11.94657194       2.45332034      -7.38444627
H       11.25389139       3.78517339      -3.34150766
H        8.85845259       4.03196510      -3.82158062
C       13.15367427       2.95335907      -5.04099892
C       14.32959615       2.83650038      -4.80019238
Br      16.23096236       2.64754976      -4.41082857
C       -0.88120583      -0.88120583      -0.88120583
C       -0.35853814      -2.03647973      -1.45100335
C       -1.16624383      -2.83005129      -2.27333368
C       -2.49936897      -2.47866860      -2.54914707
C       -3.00483989      -1.32286700      -1.94020667
C       -2.20397383      -0.52479811      -1.11468480
N       -3.23863167      -3.29296175      -3.42932468
C       -4.39084218      -2.99772232      -4.07933883
S       -4.89219248      -4.02616678      -5.37541802
C       -6.25094209      -3.01524295      -5.66709803
C       -6.22266951      -1.97753273      -4.76111476
N       -7.07126168      -0.94339850      -4.67063231
N       -5.19586336      -1.98289246      -3.86329279
C       -7.15282347      -3.34345562      -6.74765972
O       -6.79949046      -3.90773817      -7.78244140
C       -8.59873140      -2.99118913      -6.64559823
C       -9.28121344      -2.60770294      -7.80959514
C      -10.63568387      -2.27110803      -7.75151991
C      -11.30992997      -2.32837999      -6.53269944
C      -10.64704707      -2.73017464      -5.37408075
C       -9.29373619      -3.07227203      -5.43006533
H        0.67314423      -2.32618748      -1.27218433
H       -0.73111579      -3.72319690      -2.71491723
H       -4.03544864      -1.01487466      -2.09269759
H       -2.62789680       0.37173272      -0.66927791
H       -2.72843787      -4.09555897      -3.77658376
H       -6.78921909      -0.18563335      -4.05299689
H       -7.62091097      -0.62219512      -5.45983216
H       -8.75932997      -2.57104461      -8.76499873
H      -11.15334334      -1.97159933      -8.65939586
H      -11.17223368      -2.78429035      -4.42404842
H       -8.79610715      -3.39614675      -4.51974441
C      -12.70420281      -1.97388783      -6.46994162
C      -13.87190632      -1.67700065      -6.41738194
Br     -15.75998413      -1.19695918      -6.33239739
C       -0.88120583       0.88120583       0.88120583
C       -2.01879416       0.34956531       1.47766174
C       -2.83286631       1.16767204       2.26909045
C       -2.53291593       2.52689152       2.46737718
C       -1.36660933       3.02703270       1.87427153
C       -0.54589590       2.21467786       1.08288298
N       -3.42505426       3.30564921       3.23021462
C       -3.52106499       4.65636169       3.29047665
S       -4.92964204       5.35057343       4.01356180
C       -4.35006451       6.92816792       3.65505064
C       -3.13466314       6.80974318       3.01691067
N       -2.36527274       7.79265396       2.52736580
N       -2.66531749       5.54209380       2.83463733
C       -5.15596418       8.07240527       4.01556936
O       -6.38592549       8.05680643       4.04693811
C       -4.50044853       9.36445880       4.37061142
C       -5.13227373      10.56206221       4.00417559
C       -4.54740729      11.79057132       4.32033320
C       -3.33734245      11.82183018       5.01183677
C       -2.71241042      10.63803433       5.40085771
C       -3.29754228       9.40802774       5.09050352
H       -2.28820231      -0.69241613       1.32944139
H       -3.72218152       0.73060064       2.71644776
H       -1.06709830       4.06194446       2.01397813
H        0.34493061       2.64149493       0.62887766
H       -4.21614467       2.78961739       3.59481855
H       -1.59043199       7.50194801       1.93546933
H       -2.74214716       8.69647517       2.26431592
H       -6.08247357      10.54086428       3.47203546
H       -5.04424598      12.71226008       4.02783248
H       -1.77341393      10.65936241       5.94779611
H       -2.80341572       8.49538323       5.41319936
C       -2.72927779      13.08745223       5.33130223
C       -2.22002364      14.14741071       5.59885456
Br      -1.39660275      15.86127391       6.03146404
C        0.88120583      -0.88120583       0.88120583
C        2.08416536      -0.38828367       1.37357218
C        2.89655632      -1.20772861       2.16534388
C        2.52910813      -2.53083234       2.46724417
C        1.29963597      -2.99034875       1.97792884
C        0.48028779      -2.17620900       1.18695994
N        3.41980132      -3.31775217       3.22336460
C        3.43853403      -4.66581347       3.36355583
S        4.84622113      -5.40372927       4.04382688
C        4.15174913      -6.95987647       3.82165747
C        2.90748274      -6.80275745       3.25107680
N        2.05113863      -7.76225227       2.87190160
N        2.50411511      -5.52099371       3.01693979
C        4.90909937      -8.12944701       4.20539244
O        6.13729428      -8.19025191       4.16212384
C        4.20142677      -9.35365829       4.68043370
C        4.73594599     -10.60877743       4.35378810
C        4.09997875     -11.77650419       4.78182887
C        2.93663932     -11.68935241       5.54501767
C        2.40959786     -10.44707639       5.89462822
C        3.04628809      -9.27752783       5.47225762
H        2.40540774       0.62372791       1.14354774
H        3.83705503      -0.80213867       2.53003622
H        0.94828678      -3.99391218       2.20082193
H       -0.46152624      -2.57188504       0.81508318
H        4.26190753      -2.83220344       3.50646963
H        1.25899122      -7.45876257       2.31009554
H        2.35581680      -8.70231646       2.64480498
H        5.64994541     -10.67989907       3.76552882
H        4.52122235     -12.74375742       4.51935877
H        1.50769235     -10.37591225       6.49696784
H        2.62912587      -8.31765178       5.76522065
C        2.27555418     -12.89237745       5.98010063
C        1.72189537     -13.89991093       6.34448260
Br       0.82667591     -15.52900735       6.93365743
