141
Properties=species:S:1:pos:R:3 pbc="F F F"
C        0.00000000       0.00000000       0.00000000
C        0.88128274       0.88128274      -0.88128274
C        0.47483835       2.17248676      -1.19808994
C        1.29023717       2.97705813      -2.00146032
C        2.52013054       2.51006993      -2.49876129
C        2.90242725       1.20566944      -2.16219022
C        2.09060258       0.39234439      -1.36225363
N        3.30821789       3.38971508      -3.26318629
C        4.60908801       3.27900127      -3.62385625
N        5.43148693       2.28534740      -3.37270443
C        6.67743071       2.55401315      -3.86119522
N        7.59294022       1.58732242      -3.69992910
C        6.85035484       3.78131034      -4.46086359
S        5.33145838       4.58385248      -4.49858681
C        8.00599000       4.43694159      -5.03271071
O        7.94262858       5.18990343      -6.00530551
C        9.36008125       4.22759114      -4.43799578
C       10.47948116       4.31349338      -5.28030408
C       11.76560336       4.13571985      -4.76688394
C       11.94238634       3.87762568      -3.40835429
C       10.83292499       3.81374394      -2.56663700
C        9.54458955       3.99921339      -3.06826604
H       -0.46579870       2.56642479      -0.82351600
H        0.95603644       3.98750646      -2.22536856
H        3.83800026       0.78771507      -2.52194255
H        2.41946553      -0.61523293      -1.12264953
H        2.84450058       4.25209070      -3.51884702
H        8.40192789       1.50090122      -4.30495176
H        7.24563408       0.68908803      -3.37392602
H       10.35281309       4.52432403      -6.34166546
H       12.62844111       4.20373890      -5.42555130
H       12.94616467       3.73766394      -3.01451341
H        8.69743632       3.96440188      -2.38797773
C       11.01906794       3.55309750      -1.16270886
C       11.17496267       3.33480610       0.01308096
Br      11.42703125       2.98184737       1.91423366
C       -0.88128274      -0.88128274      -0.88128274
C       -2.13138406      -0.42757367      -1.28645730
C       -2.93162603      -1.23799404      -2.09913556
C       -2.49973606      -2.50824746      -2.52097823
C       -1.23599867      -2.93730334      -2.09698490
C       -0.43046654      -2.13443987      -1.28029419
N       -3.33836144      -3.24916549      -3.37359233
C       -3.05203458      -4.34809524      -4.11181572
N       -1.91668718      -5.00755842      -4.16529317
C       -1.99781244      -6.03784627      -5.05698037
N       -0.90648187      -6.81003035      -5.16367952
C       -3.18568001      -6.16542962      -5.74141914
S       -4.28346913      -4.98604258      -5.14438596
C       -3.62384501      -7.07099673      -6.78080056
O       -4.78314466      -7.47488991      -6.87980295
C       -2.65811236      -7.55531152      -7.81224430
C       -2.87009336      -8.81969149      -8.38349377
C       -1.99968892      -9.30934590      -9.35917234
C       -0.91621127      -8.53700671      -9.77514832
C       -0.71698341      -7.27190859      -9.22441393
C       -1.58629955      -6.76993984      -8.25582959
H       -2.49145718       0.55200520      -0.98469010
H       -3.90038312      -0.85585187      -2.41267646
H       -0.85132583      -3.91114732      -2.38518473
H        0.54419715      -2.50115075      -0.96992854
H       -4.26424386      -2.85847570      -3.49271875
H       -0.95164808      -7.77033258      -5.48580021
H       -0.18010502      -6.66034606      -4.46819705
H       -3.71932320      -9.42712926      -8.07235013
H       -2.17019827     -10.29003895      -9.79749409
H       -0.24027483      -8.92445882     -10.53360836
H       -1.42085248      -5.77256660      -7.85639686
C        0.39952088      -6.47388639      -9.66050879
C        1.33459323      -5.80554279     -10.02573824
Br       2.84652612      -4.72488772     -10.61628337
C       -0.88128274       0.88128274       0.88128274
C       -0.35720290       2.03495291       1.45325923
C       -1.17216636       2.84142043       2.25516883
C       -2.51809639       2.51323234       2.49763303
C       -3.01722465       1.34551721       1.90754505
C       -2.20750684       0.53059236       1.10710140
N       -3.28981977       3.39407120       3.27722829
C       -4.63433157       3.44427264       3.43334132
N       -5.53462905       2.63894757       2.91596214
C       -6.79375540       3.03365698       3.26522669
N       -7.79573707       2.25722478       2.82722989
C       -6.89002903       4.17861990       4.02387984
S       -5.30102408       4.71509755       4.39777604
C       -8.02103142       4.92570550       4.52890538
O       -8.01113161       5.51797243       5.60873348
C       -9.27837266       5.01927374       3.72802177
C      -10.49548142       5.16647761       4.41131958
C      -11.69503983       5.26887552       3.70429181
C      -11.68610924       5.23151913       2.31073794
C      -10.47578437       5.10734866       1.63017291
C       -9.27111980       5.01374005       2.32720914
H        0.67631206       2.32111584       1.27933830
H       -0.74243176       3.74496021       2.68151949
H       -4.04671970       1.03710465       2.06383352
H       -2.62911965      -0.36883761       0.66660011
H       -2.75890241       4.12779564       3.72874026
H       -8.69515073       2.21895360       3.29367654
H       -7.52753887       1.36844485       2.41266442
H      -10.51238310       5.20647847       5.49994101
H      -12.63444883       5.38281212       4.24047035
H      -12.62359218       5.30930611       1.76544372
H       -8.33902303       4.93774324       1.77304967
C      -10.46909568       5.07523197       0.19054664
C      -10.46349391       5.04833425      -1.01514035
Br     -10.45443632       5.00484291      -2.96463425
C        0.88128274      -0.88128274       0.88128274
C        2.08096161      -0.38546697       1.37898646
C        2.88111437      -1.19655115       2.19109011
C        2.49908853      -2.50940756       2.52046567
C        1.28543271      -2.98031353       2.00454066
C        0.48063912      -2.17681955       1.18774193
N        3.33152287      -3.25139507       3.37820132
C        3.06835240      -4.40339613       4.04019700
N        1.97033324      -5.12388570       3.99531982
C        2.06158908      -6.19659436       4.83445563
N        1.01093389      -7.03011528       4.83914257
C        3.21689658      -6.29922288       5.57640931
S        4.27717977      -5.03200229       5.10471561
C        3.64937291      -7.23695441       6.58931498
O        4.82254937      -7.58391911       6.73136905
C        2.65901757      -7.82841939       7.53823122
C        2.91073618      -9.10973368       8.05280875
C        2.01867177      -9.69837370       8.95116168
C        0.87332277      -9.00878076       9.34626278
C        0.63319547      -7.72722126       8.85288920
C        1.52311283      -7.12675665       7.96219950
H        2.40125712       0.62707964       1.14996460
H        3.80911626      -0.78184412       2.57795107
H        0.94100714      -3.98768505       2.21896569
H       -0.45428072      -2.57663021       0.80453265
H        4.22657294      -2.81958330       3.56928207
H        1.09252827      -8.00316479       5.11208781
H        0.31510279      -6.88044946       4.11309588
H        3.80778953      -9.65314010       7.75787297
H        2.22023625     -10.69161429       9.34588077
H        0.18092659      -9.47312455      10.04429088
H        1.32361002      -6.11878764       7.60741827
C       -0.54757867      -7.01488899       9.26756398
C       -1.53647701      -6.41831071       9.61485411
Br      -3.13544199      -5.45369409      10.17639287
