154
Properties=species:S:1:pos:R:3 pbc="F F F"
C        1.79118677       1.79118677      -1.79118677
C        1.38474237       3.08239078      -2.10799396
C        2.20014119       3.88696216      -2.91136435
C        3.43003457       3.41997395      -3.40866531
C        3.81233127       2.11557347      -3.07209424
C        3.00050661       1.30224842      -2.27215765
N        4.21812192       4.29961910      -4.17309032
C        5.51899203       4.18890530      -4.53376027
N        6.34139096       3.19525142      -4.28260845
C        7.58733473       3.46391718      -4.77109924
N        8.50284424       2.49722644      -4.60983313
C        7.76025886       4.69121436      -5.37076762
S        6.24136240       5.49375650      -5.40849084
C        8.91589403       5.34684562      -5.94261473
O        8.85253260       6.09980745      -6.91520954
C       10.26998528       5.13749516      -5.34789981
C       11.38938518       5.22339740      -6.19020810
C       12.67550739       5.04562388      -5.67678796
C       12.85229037       4.78752970      -4.31825831
C       11.74282901       4.72364797      -3.47654102
Br      11.98725621       4.38138908      -1.63302123
C       10.45449358       4.90911741      -3.97817007
H        0.44410532       3.47632881      -1.73342002
H        1.86594046       4.89741048      -3.13527258
H        4.74790428       1.69761909      -3.43184657
H        3.32936956       0.29467110      -2.03255356
H        3.75440461       5.16199473      -4.42875105
H        9.31183192       2.41080524      -5.21485578
H        8.15553810       1.59899206      -4.28383004
H       11.26271712       5.43422806      -7.25156948
H       13.53834513       5.11364293      -6.33545532
H       13.85606869       4.64756796      -3.92441743
H        9.60734034       4.87430590      -3.29788176
C       -1.79118677      -1.79118677      -1.79118677
C       -3.17348928      -1.64753327      -1.75410456
C       -3.97511957      -2.45444797      -2.56890017
C       -3.41399725      -3.41279365      -3.43188292
C       -2.01899626      -3.53373600      -3.44726672
C       -1.20957760      -2.73318006      -2.63215502
N       -4.27861071      -4.15751924      -4.25470138
C       -3.98431678      -4.92881763      -5.32852320
N       -2.79777951      -5.19480780      -5.82666352
C       -2.90544479      -5.97631517      -6.94059119
N       -1.75026352      -6.34808796      -7.51155233
C       -4.18217584      -6.29184067      -7.34822434
S       -5.28993737      -5.65340744      -6.20026492
C       -4.69297558      -7.02968184      -8.48269695
O       -5.70876000      -7.72448205      -8.43430754
C       -3.99148976      -6.96411524      -9.79977525
C       -4.07387595      -8.07337246     -10.65574228
C       -3.44331597      -8.05334621     -11.90125705
C       -2.73222494      -6.92337381     -12.30247964
C       -2.66789449      -5.81261807     -11.46250544
Br      -1.70919588      -4.27880790     -12.01366274
C       -3.30229036      -5.81929605     -10.22019465
H       -3.63824458      -0.91118209      -1.10442748
H       -5.05302838      -2.31484981      -2.53074534
H       -1.52867188      -4.26054400      -4.08815406
H       -0.13057075      -2.85599096      -2.67003251
H       -5.26129214      -4.04084683      -4.04301141
H       -1.67228628      -7.18143385      -8.08377281
H       -0.90394438      -6.15054121      -6.98387461
H       -4.63515584      -8.95764171     -10.35571710
H       -3.51147266      -8.91658101     -12.55938971
H       -2.24116266      -6.91433602     -13.27255541
H       -3.25403287      -4.93335535      -9.59213979
C       -1.79118677       1.79118677       1.79118677
C       -1.22004973       2.54462016       2.81045722
C       -2.03284297       3.35489836       3.61072637
C       -3.42258840       3.42840627       3.40767916
C       -3.96837644       2.65839385       2.37322868
C       -3.16287342       1.84169758       1.57034168
N       -4.17089709       4.29829080       4.22164345
C       -5.44166554       4.73876503       4.06122704
N       -6.29241183       4.41245985       3.11437915
C       -7.46499650       5.09543720       3.26191744
N       -8.42757409       4.80938620       2.37294353
C       -7.52456457       5.99563042       4.30204585
S       -6.06030016       5.88851542       5.19479416
C       -8.54591214       6.92349515       4.73594709
O       -8.74263627       7.20656209       5.91835124
C       -9.41927570       7.60326526       3.73283929
C      -10.71940230       7.96643854       4.11714984
C      -11.56781991       8.61344242       3.21665690
C      -11.12120586       8.90763677       1.92923575
C       -9.82269960       8.56710738       1.55321102
Br      -9.21788786       8.97505416      -0.19127550
C       -8.96430415       7.92889761       2.44857929
H       -0.14870620       2.51656974       2.98857821
H       -1.56092106       3.94392719       4.39377527
H       -5.03566465       2.66894838       2.17275691
H       -3.62183039       1.25719369       0.77757013
H       -3.65466372       4.69317990       4.99730676
H       -9.41094045       4.95210340       2.57444908
H       -8.25993337       4.00706169       1.77136514
H      -11.07481688       7.74972270       5.12397508
H      -12.57404884       8.89195712       3.52143743
H      -11.78712824       9.40950536       1.23142048
H       -7.94998728       7.69178652       2.13775421
C        1.79118677      -1.79118677       1.79118677
C        2.70208285      -1.20823811       2.66480615
C        3.50261525      -2.02176240       3.47409005
C        3.40733553      -3.42416896       3.42716933
C        2.48054406      -3.98171735       2.53773758
C        1.67847579      -3.17511705       1.72131984
N        4.21183831      -4.17738208       4.30161094
C        4.12198098      -5.48793187       4.63174475
N        3.27376137      -6.37782811       4.16766135
C        3.46400192      -7.58737406       4.77097517
N        2.67931922      -8.58735511       4.34322949
C        4.43552563      -7.64159147       5.74512375
S        5.21283535      -6.11098442       5.81978997
C        4.87994873      -8.69920306       6.62620258
O        6.04995550      -8.82939587       6.98819822
C        3.90262082      -9.69686920       7.15589023
C        4.36232670     -10.98975467       7.45090931
C        3.48742544     -11.95233374       7.95816005
C        2.14985444     -11.62812200       8.18010194
C        1.69682659     -10.33805450       7.90813691
Br      -0.11627896      -9.89984879       8.21809669
C        2.56517423      -9.36664886       7.40995797
H        2.79486261      -0.12783084       2.73116071
H        4.19897309      -1.54178951       4.15786093
H        2.36652626      -5.05835000       2.45249369
H        0.97107168      -3.64329304       1.04222950
H        4.91175829      -3.63826767       4.79512442
H        2.94822985      -9.56125542       4.42800766
H        2.12768574      -8.40090951       3.50976496
H        5.40787055     -11.25048437       7.29015974
H        3.85070457     -12.95220430       8.18453451
H        1.47251645     -12.38249927       8.57303837
H        2.19214816      -8.36252727       7.22485257
C       -0.00445707       0.01189536      -1.78238275
H       -0.66409135       0.67374010      -2.43557963
H        0.65740317      -0.63156657      -2.45157240
C       -0.90989263      -0.90692880      -0.91072765
C        0.90977584       0.90977584      -0.90977584
C       -0.00465871       1.77757030       0.00794375
H       -0.66225468       2.44313916      -0.64384735
H        0.64322798       2.43503045       0.67728295
C       -1.78241447       0.00034974      -0.00472694
H       -2.45427497      -0.65498947       0.64260836
H       -2.43311707       0.67328779      -0.65473579
C       -0.91132561       0.90220522       0.91563759
C       -0.01476271      -0.02253852       1.78660255
H       -0.67934791      -0.69751639       2.42135241
H        0.63392994       0.61504881       2.47327442
C        0.01484550      -1.77751727      -0.01636693
H        0.67870853      -2.42144646      -0.68295456
H       -0.62264859      -2.45592969       0.64226336
C        1.78714474       0.01002794       0.00389507
H        2.44202412       0.67113390       0.66197326
H        2.45385902      -0.65136977      -0.64189061
C        0.91606151      -0.90478549       0.90901405
