173
Properties=species:S:1:pos:R:3 pbc="F F F"
C        0.00000000       0.00000000       0.00000000
O       -2.32542660       1.32354834      -5.14821950
C       -1.11958696       1.15275544      -5.19637698
C       -0.09423382       2.25370873      -5.04413683
C        1.29389750       1.77655348      -4.60312107
H        2.02568654       2.48620731      -5.01197888
C        1.47319068       1.70570257      -3.09516971
C        2.48970779       2.47234636      -2.49513917
C        2.69829121       2.43972391      -1.11421554
C        1.89450645       1.64146046      -0.30487284
C        0.88200552       0.88200552      -0.88200552
C        0.66412497       0.91204576      -2.26218445
C        1.61280800       0.41858056      -5.11619344
C        2.83465340      -0.28525654      -5.27042829
C        4.20851467       0.17080898      -4.93412224
N        2.64230594      -1.51748384      -5.76541429
N        1.29747872      -1.62867039      -5.92025796
C        0.69257373      -2.78935167      -6.39982765
S        1.62720141      -4.14608963      -6.80504197
C        0.18804005      -4.98357916      -7.25475765
C        0.04657919      -6.29022808      -7.75068634
C       -1.24290927      -6.73841559      -8.04699613
C       -2.35482394      -5.92387121      -7.85891843
C       -2.19986835      -4.62435028      -7.36185998
C       -0.91181786      -4.14126958      -7.05312084
N       -0.61316614      -2.87869796      -6.55600546
C        0.66169091      -0.46298701      -5.55498807
N       -0.68094423      -0.15523634      -5.55190546
H       -0.48656842       3.01490020      -4.36028779
H       -0.01175195       2.71331950      -6.03784620
H        3.13763152       3.10787567      -3.09771447
H        3.49037498       3.03785007      -0.66838410
H        2.06535100       1.61887840       0.76863682
H       -0.13276865       0.29749546      -2.67078602
H        4.34022166       1.22699582      -5.18888926
H        4.96344330      -0.40225796      -5.48226598
H        4.39523258       0.04661535      -3.86281525
H        0.91475950      -6.92592193      -7.89778457
H       -3.35274383      -6.28742874      -8.09531880
H       -3.06809618      -3.98877694      -7.21504569
H       -1.36706161      -0.86786819      -5.79971885
C       -1.42153186      -8.07246858      -8.55885218
C       -1.57112828      -9.18973795      -8.98753161
Br      -1.81301304     -10.99626803      -9.68067001
O       -0.86690839      -5.35015326       2.07072041
C       -0.76989194      -5.31589751       0.85624400
C       -1.94035719      -5.17283654      -0.09041800
C       -1.57860784      -4.62113066      -1.47383355
H       -2.30748463      -5.02980425      -2.18658384
C       -1.60869693      -3.10374126      -1.56162476
C       -2.47208954      -2.49402471      -2.49107907
C       -2.53458072      -1.10385990      -2.61379004
C       -1.73662599      -0.29488599      -1.80932778
C       -0.88200552      -0.88200552      -0.88200552
C       -0.81640005      -2.27181673      -0.75013839
C       -0.21541392      -5.02780013      -1.90436796
C        0.41792676      -5.06468367      -3.17306824
C       -0.14294050      -4.67695102      -4.49355437
N        1.68699333      -5.49156093      -3.08566880
N        1.89168975      -5.71852449      -1.76223155
C        3.11456364      -6.15900406      -1.25860929
S        4.43133287      -6.42180442      -2.29568219
C        5.38303100      -6.90235500      -0.93989454
C        6.72308923      -7.32246542      -0.90766126
C        7.26842040      -7.66584750       0.33175582
C        6.51585396      -7.59570907       1.49963183
C        5.18197961      -7.17322409       1.45360313
C        4.60124001      -6.81974343       0.21847002
N        3.29511753      -6.38635643       0.02709754
C        0.74879382      -5.46576671      -1.03671908
N        0.52662531      -5.56166703       0.31931683
H       -2.71450185      -4.56277411       0.38865639
H       -2.34454604      -6.18689575      -0.20797196
H       -3.11035309      -3.09598895      -3.13687962
H       -3.20680470      -0.65044663      -3.33935782
H       -1.78852139       0.78614790      -1.91321909
H       -0.12971699      -2.68738977      -0.01840607
H       -1.18836762      -4.98951615      -4.57822297
H        0.41289156      -5.14218152      -5.31416135
H       -0.09447505      -3.59076731      -4.61942081
H        7.31040665      -7.37749495      -1.81953383
H        6.95494737      -7.86745847       2.45736486
H        4.59480207      -7.11847266       2.36549802
H        1.29451138      -5.80430808       0.94500764
C        8.63906585      -8.10230116       0.39838357
C        9.78698141      -8.46783110       0.45418430
Br      11.64306379      -9.05886210       0.54440937
O       -5.69690488      -0.83317850      -0.71738514
C       -5.40532335       0.33144643      -0.50722433
C       -5.37087693       0.96938591       0.86334889
C       -4.49033671       2.21987685       0.96335848
H       -4.91803856       2.85546008       1.75037408
C       -3.03861611       1.92799872       1.30744812
C       -2.48925456       2.49547709       2.47246167
C       -1.15956132       2.26148251       2.83118684
C       -0.35239602       1.45466032       2.03378342
C       -0.88200552       0.88200552       0.88200552
C       -2.21237916       1.10781622       0.51815979
C       -4.46142709       2.99228164      -0.30612672
C       -4.09634911       4.32971620      -0.60624016
C       -3.60848910       5.38149738       0.32345940
N       -4.20995523       4.59658521      -1.91630405
N       -4.63232844       3.43381577      -2.47707792
C       -4.85078619       3.29949157      -3.84722806
S       -4.57889033       4.60428197      -4.89701855
C       -5.06663568       3.61730859      -6.22472573
C       -5.14583196       3.94871675      -7.58751126
C       -5.57961320       2.96016790      -8.47410983
C       -5.92257582       1.68734318      -8.02969572
C       -5.83694319       1.36966574      -6.66896758
C       -5.40301704       2.34482115      -5.74780478
N       -5.27209414       2.16799380      -4.37594658
C       -4.81104053       2.46126007      -1.51860863
N       -5.21911780       1.15285771      -1.65625062
H       -5.07247271       0.21550300       1.60064386
H       -6.41020673       1.24967571       1.07953131
H       -3.09156065       3.13206461       3.11959640
H       -0.75171148       2.71031373       3.73458394
H        0.68245102       1.28010644       2.31793716
H       -2.58194221       0.64671532      -0.39314470
H       -4.14367622       5.33543226       1.27699826
H       -3.75621251       6.38236937      -0.09513057
H       -2.54005114       5.24602642       0.51858561
H       -4.87836973       4.94254264      -7.93429023
H       -6.25955103       0.92845449      -8.73285927
H       -6.10463997       0.37591348      -6.32238087
H       -5.38401052       0.76616352      -2.58538499
C       -5.67355994       3.26879803      -9.87750623
C       -5.75224034       3.52727576     -11.05285071
Br      -5.87945988       3.94521239     -12.95328334
O       -2.92964288      -3.38638378       3.68960033
C       -1.88606828      -2.96139223       4.15422150
C       -0.56037104      -3.68492616       4.07905661
C        0.66907095      -2.78118783       4.22331326
H        1.46970601      -3.39079390       4.66337281
C        1.16565976      -2.19843954       2.90996365
C        2.48295788      -2.47545709       2.49877835
C        2.98870615      -1.96103716       1.30248736
C        2.18796746      -1.16057652       0.49229578
C        0.88200552      -0.88200552       0.88200552
C        0.36706939      -1.39599935       2.07528643
C        0.41361802      -1.61947243       5.11449155
C        1.27891665      -0.73405170       5.80685680
C        2.76492471      -0.72475473       5.82376644
N        0.59727343       0.19770100       6.49066396
N       -0.71067923      -0.06466525       6.23508027
C       -1.74547798       0.70929331       6.75782100
S       -1.40907977       2.04845777       7.74369129
C       -3.10203354       2.33877600       7.90002808
C       -3.76057662       3.35060865       8.61822272
C       -5.15713054       3.36649128       8.58929310
C       -5.87849479       2.41576206       7.87448013
C       -5.20952605       1.41400830       7.16117571
C       -3.80037294       1.36962398       7.17003032
N       -3.01091719       0.43560272       6.51066127
C       -0.84192646      -1.17058650       5.42503193
N       -1.97867779      -1.76784100       4.92656168
H       -0.52051408      -4.26130557       3.14782807
H       -0.57292972      -4.40150658       4.91083688
H        3.13762131      -3.09768470       3.10791565
H        4.01029801      -2.18442894       1.00188220
H        2.58999945      -0.76118689      -0.43559376
H       -0.65538228      -1.14689565       2.34399946
H        3.15925367      -1.74530178       5.85155129
H        3.14964941      -0.19341994       6.70038196
H        3.14899338      -0.22890331       4.92676649
H       -3.19730055       4.09258140       9.17650408
H       -6.96620542       2.44118271       7.86253438
H       -5.77295050       0.67204565       6.60316872
H       -2.89244781      -1.35184151       5.10539534
C       -5.86222406       4.38977310       9.31684890
C       -6.45273988       5.24677163       9.92617689
Br      -7.40755402       6.63246576      10.91140871
