165
Properties=species:S:1:pos:R:3 pbc="F F F"
C        0.00000000       0.00000000       0.00000000
C        0.88151894       0.88151894      -0.88151894
C        2.07794368       1.38483436      -0.38054805
C        2.88508107       2.19209059      -1.18715830
C        2.50181124       2.51335478      -2.50182217
C        1.28976815       1.98809446      -2.98635099
C        0.48424955       1.17724862      -2.18198294
C        3.34614798       3.39169359      -3.41479839
H        2.87059944       3.43915922      -4.40323654
C        4.78597015       2.88825994      -3.61610068
C        5.81640745       3.36278436      -2.58776287
O        6.84455125       2.72112208      -2.37242116
N        5.62239687       4.58560225      -1.99191970
C        4.42736072       5.24666801      -2.14636125
C        3.33546759       4.74569874      -2.80428088
C        2.36340478       5.76640294      -2.71111953
C        0.98189627       5.76999187      -3.25276965
N        2.81398263       6.81986422      -2.01356021
N        4.08007382       6.48079363      -1.63458717
C        4.84838964       7.32699027      -0.82696903
S        4.20201064       8.80005142      -0.27342441
C        5.66758035       9.10973324       0.57930294
C        6.00506781      10.21150565       1.38309305
C        7.27352062      10.22652567       1.96827993
Br       7.76698180      11.69059964       3.06147447
C        8.17876423       9.18996261       1.76474688
C        7.82806202       8.09772831       0.96256247
C        6.55404143       8.05003452       0.36039863
N        6.07490572       7.02944518      -0.44621200
H        2.39348301       1.15819236       0.63471385
H        3.81166576       2.57263444      -0.76368406
H        0.95915335       2.20535899      -4.00041621
H       -0.44762801       0.78326700      -2.57915100
H        4.80978569       1.79264390      -3.65600193
H        5.15465536       3.25670053      -4.58333949
H        6.35134449       4.96619843      -1.39191952
H        0.58601324       6.78816631      -3.32850790
H        0.31822195       5.19243966      -2.60183416
H        0.95726971       5.32717964      -4.25350581
H        5.29778467      11.01991816       1.54057372
H        9.16380507       9.21551316       2.22533962
H        8.53011379       7.28488488       0.80181920
C       -0.88151894      -0.88151894      -0.88151894
C       -0.41236488      -1.31259056      -2.11837064
C       -1.21918028      -2.11938100      -2.92576869
C       -2.50856592      -2.49804232      -2.51037995
C       -2.95779240      -2.05294002      -1.25348117
C       -2.15001473      -1.24983613      -0.44363025
C       -3.42374703      -3.37137468      -3.35751826
H       -4.34103536      -3.58039418      -2.79156566
C       -2.80811180      -4.72289195      -3.75932702
C       -1.98479189      -4.73189955      -5.05026324
O       -1.11360716      -5.57940454      -5.24508278
N       -2.32043692      -3.83966600      -6.03981590
C       -3.21231931      -2.82628721      -5.78178346
C       -3.76520841      -2.56380189      -4.55643692
C       -4.61048513      -1.45367412      -4.77676800
C       -5.46663722      -0.74315003      -3.79487054
N       -4.56080288      -1.03605573      -6.05054845
N       -3.66713224      -1.86566547      -6.66265692
C       -3.31066872      -1.68746345      -8.00421676
S       -3.97192544      -0.40217796      -8.90138307
C       -3.04036318      -0.89086352     -10.26678394
C       -2.97701485      -0.31137741     -11.54508813
C       -2.13638294      -0.90641487     -12.48896855
Br      -2.01885559      -0.15512387     -14.22212751
C       -1.38565338      -2.03661522     -12.18171137
C       -1.45770569      -2.60223010     -10.90329207
C       -2.29366970      -2.02366604      -9.92634158
N       -2.45288570      -2.47306096      -8.62461625
H        0.57723062      -1.02767006      -2.46652208
H       -0.82407359      -2.43551304      -3.88839763
H       -3.94594908      -2.32903291      -0.88994657
H       -2.51946371      -0.91879387       0.52346760
H       -2.18962635      -5.12221889      -2.94658627
H       -3.62114293      -5.44147888      -3.93207357
H       -1.85890899      -3.90584494      -6.94470851
H       -6.24742148      -0.16043614      -4.29482983
H       -4.86275647      -0.05875461      -3.19098469
H       -5.95904354      -1.45455936      -3.12435225
H       -3.56385869       0.57028475     -11.78355518
H       -0.73639011      -2.49056396     -12.92702454
H       -0.87240598      -3.48336337     -10.65741012
C       -0.88151894       0.88151894       0.88151894
C       -1.69598965       0.29954769       1.84778874
C       -2.50333056       1.10620111       2.65479829
C       -2.51293994       2.50418221       2.49986603
C       -1.67688964       3.06844720       1.51887676
C       -0.86604029       2.26294867       0.71449216
C       -3.37848249       3.42165551       3.35250195
H       -3.16025540       4.46466340       3.08807641
C       -3.15351610       3.26990887       4.86690580
C       -3.99525365       2.20155381       5.57014722
O       -3.62311318       1.68925614       6.62572516
N       -5.23517278       1.90980174       5.05494430
C       -5.60217030       2.39550117       3.82271851
C       -4.78485862       3.11165083       2.98893777
C       -5.58599339       3.39452854       1.86040532
C       -5.21558268       4.15060048       0.63847463
N       -6.81158113       2.86132428       1.97450165
N       -6.80746767       2.21298105       3.17500590
C       -7.91674489       1.47767003       3.60793402
S       -9.29831758       1.35418975       2.62297914
C      -10.04046023       0.34804642       3.80950400
C      -11.30742742      -0.25863047       3.78468345
C      -11.68000840      -1.03380340       4.88556136
Br     -13.37703262      -1.87176033       4.89083467
C      -10.83129869      -1.20222831       5.97490958
C       -9.57109708      -0.59291993       5.98505070
C       -9.16300871       0.19288072       4.88778789
N       -7.94487987       0.84277431       4.76290871
H       -1.71325715      -0.77896821       1.98267259
H       -3.13117085       0.61937264       3.39744077
H       -1.64769941       4.14643503       1.37079412
H       -0.22859867       2.72255726      -0.03636595
H       -2.09523607       3.08033191       5.08286354
H       -3.42098685       4.21568329       5.35802524
H       -5.85243115       1.28611580       5.57091549
H       -6.10360202       4.49861378       0.10047164
H       -4.63280019       3.51681959      -0.03712402
H       -4.61474866       5.02914129       0.89406521
H      -11.96885905      -0.12585007       2.93412014
H      -11.13506145      -1.80729856       6.82621572
H       -8.90377293      -0.72257793       6.83198447
C        0.88151894      -0.88151894       0.88151894
C        1.85246943      -1.69078250       0.30007415
C        2.65948129      -2.49812221       1.10672646
C        2.49989555      -2.51295431       2.50413833
C        1.51421252      -1.68210120       3.06789989
C        0.70980990      -0.87124817       2.26242304
C        3.35235748      -3.37871486       3.42156762
H        3.08370342      -3.16488594       4.46440584
C        4.86649620      -3.14816253       3.27567205
C        5.57614391      -3.98393819       2.20687258
O        6.63217569      -3.60653891       1.69937988
N        5.06609662      -5.22458930       1.90923289
C        3.83349086      -5.59734853       2.38955059
C        2.99456845      -4.78525121       3.10562755
C        1.86779554      -5.59111273       3.38201897
C        0.64209725      -5.22734716       4.13521338
N        1.98780181      -6.81451017       2.84509508
N        3.19045264      -6.80419008       2.20081191
C        3.62957347      -7.90952927       1.46324620
S        2.64969187      -9.29397359       1.33182101
C        3.84207389     -10.02874428       0.32719247
C        3.82355042     -11.29373932      -0.28380934
C        4.92826865     -11.66001677      -1.05651906
Br       4.94206108     -13.35418496      -1.90013908
C        6.01531394     -10.80709730      -1.21843128
C        6.01917209      -9.54892585      -0.60487008
C        4.91791382      -9.14716504       0.17859846
N        4.78675866      -7.93165517       0.83214908
H        1.99102622      -1.70396899      -0.77803368
H        3.40586007      -3.12182739       0.62029680
H        1.36241874      -1.65703459       4.14547523
H       -0.04472544      -0.23787774       2.72163769
H        5.07952672      -2.08853250       3.09037230
H        5.35533869      -3.41716543       4.22219126
H        5.58622996      -5.83801229       1.28522019
H        0.10592104      -6.11833131       4.47843509
H       -0.03332934      -4.64470431       3.50112079
H        0.89271768      -4.62861864       5.01661883
H        2.97477679     -11.95846223      -0.15610990
H        6.86966131     -11.10596644      -1.82164914
H        6.86428592      -8.87833315      -0.72943961
