194
Properties=species:S:1:pos:R:3 pbc="F F F"
C        1.79142296       1.79142296      -1.79142296
C        2.98784770       2.29473838      -1.29045207
C        3.79498509       3.10199462      -2.09706233
C        3.41171527       3.42325880      -3.41172619
C        2.19967218       2.89799848      -3.89625501
C        1.39415358       2.08715265      -3.09188696
C        4.25605200       4.30159762      -4.32470241
H        3.78050347       4.34906324      -5.31314056
C        5.69587417       3.79816396      -4.52600471
C        6.72631148       4.27268838      -3.49766689
O        7.75445527       3.63102610      -3.28232518
N        6.53230089       5.49550627      -2.90182373
C        5.33726475       6.15657203      -3.05626528
C        4.24537161       5.65560276      -3.71418491
C        3.27330880       6.67630696      -3.62102355
C        1.89180029       6.67989590      -4.16267367
N        3.72388665       7.72976824      -2.92346423
N        4.98997784       7.39069766      -2.54449119
C        5.75829366       8.23689429      -1.73687306
S        5.11191466       9.70995545      -1.18332843
C        6.57748437      10.01963726      -0.33060108
C        6.91497183      11.12140967       0.47318903
C        8.18342465      11.13642970       1.05837591
C        9.08866825      10.09986664       0.85484286
C        8.73796605       9.00763233       0.05265845
C        7.46394545       8.95993855      -0.54950539
N        6.98480974       7.93934921      -1.35611603
H        3.30338703       2.06809639      -0.27519018
H        4.72156978       3.48253847      -1.67358808
H        1.86905737       3.11526301      -4.91032024
H        0.46227602       1.69317102      -3.48905502
H        5.71968971       2.70254793      -4.56590595
H        6.06455938       4.16660456      -5.49324351
H        7.26124852       5.87610245      -2.30182355
H        1.49591726       7.69807033      -4.23841193
H        1.22812597       6.10234368      -3.51173818
H        1.86717373       6.23708366      -5.16340983
H        6.20768869      11.92982219       0.63066969
H       10.07370909      10.12541718       1.31543560
H        9.44001781       8.19478890      -0.10808482
C        8.55887039      12.25035794       1.89012369
C        8.87330620      13.18327284       2.58671245
Br       9.38172232      14.69171733       3.71303757
C       -1.79142296      -1.79142296      -1.79142296
C       -1.83279393      -1.57506443      -3.16517980
C       -2.63988180      -2.38168689      -3.97247335
C       -3.42240141      -3.40909306      -3.41520579
C       -3.35930800      -3.61051361      -2.02410407
C       -2.54920752      -2.80727456      -1.21671111
C       -4.31897495      -4.30919781      -4.25417927
H       -4.77043915      -5.06921432      -3.60305381
C       -3.58566294      -5.04597374      -5.38840616
C       -3.47866170      -4.29790778      -6.72009726
O       -2.58522972      -4.55605417      -7.52652266
N       -4.47424647      -3.40894100      -7.04644341
C       -5.40526419      -3.03950979      -6.10532806
C       -5.38971962      -3.43221052      -4.79322915
C       -6.52779180      -2.81909891      -4.22374861
C       -7.01004443      -2.90150682      -2.82281862
N       -7.18888065      -2.06966839      -5.11857009
N       -6.47170465      -2.17938459      -6.27407745
C       -6.83522452      -1.47151066      -7.42532582
S       -8.17834871      -0.42774021      -7.39910962
C       -7.87270972      -0.01144958      -9.04356341
C       -8.57215108       0.88152820      -9.87256959
C       -8.11972641       1.04268027     -11.18443230
C       -7.01561280       0.34402923     -11.66210847
C       -6.32752591      -0.54128884     -10.82412519
C       -6.75611980      -0.72391799      -9.49335160
N       -6.16496246      -1.55813144      -8.55718107
H       -1.24388377      -0.78266445      -3.62012537
H       -2.65261796      -2.18339054      -5.04168783
H       -3.94261550      -4.39938275      -1.55264237
H       -2.51728235      -2.98268881      -0.14453090
H       -2.57838062      -5.33994385      -5.06981913
H       -4.13524115      -5.96863940      -5.62052691
H       -4.47868311      -2.98746479      -7.97302662
H       -8.06549519      -2.61962749      -2.74727683
H       -6.42992555      -2.22998276      -2.18229953
H       -6.90868238      -3.92115107      -2.43783377
H       -9.43391890       1.42563267      -9.49855496
H       -6.67526256       0.47803746     -12.68646557
H       -5.46383773      -1.08784007     -11.19121374
C       -8.81330162       1.95281711     -12.05862013
C       -9.39417085       2.71505671     -12.79075245
Br     -10.33338728       3.94753367     -13.97454847
C       -1.79142296       1.79142296       1.79142296
C       -1.89747497       1.52308292       3.15248027
C       -2.70458956       2.32969804       3.95975444
C       -3.42263019       3.40939750       3.41467257
C       -3.29476816       3.66261647       2.03654106
C       -2.48450868       2.85925988       1.22942462
C       -4.31670682       4.31176172       4.25388349
H       -4.71089880       5.11464087       3.61716760
C       -3.60203634       4.97272467       5.44528184
C       -3.57914310       4.16911476       6.74840889
O       -2.71001369       4.35855598       7.59923689
N       -4.62144182       3.30950520       6.99868386
C       -5.52695875       3.01579409       6.00734921
C       -5.44228088       3.45882451       4.71405390
C       -6.57931540       2.91568758       4.07563634
C       -7.00019792       3.07279787       2.66137408
N       -7.30544264       2.15933985       4.91233665
N       -6.63241294       2.19407793       6.09867582
C       -7.07031448       1.45695363       7.20479291
S       -8.45124667       0.47088249       7.08306938
C       -8.22979264      -0.02191862       8.71984870
C       -8.99716128      -0.91742381       9.48345500
C       -8.60550903      -1.14842754      10.80439695
C       -7.49525610      -0.51488863      11.35332457
C       -6.73915733       0.37378707      10.57999554
C       -7.10539845       0.62600134       9.24198961
N       -6.44406305       1.47148425       8.36472768
H       -1.35930088       0.68996064       3.59741207
H       -2.76887517       2.09019516       5.01862600
H       -3.82681132       4.49263375       1.57519555
H       -2.40184345       3.07524862       0.16740998
H       -2.57177528       5.23751299       5.17885533
H       -4.12394642       5.90727298       5.69318806
H       -4.68037894       2.85245165       7.90634393
H       -8.06193931       2.83755219       2.53290802
H       -6.42120094       2.40379648       2.01721042
H       -6.84314039       4.10178815       2.32273868
H       -9.86362528      -1.41066317       9.05387908
H       -7.20266011      -0.70289776      12.38392833
H       -5.87039630       0.86966299      11.00283224
C       -9.36954543      -2.06308108      11.61264029
C      -10.00942592      -2.82910341      12.28954408
Br     -11.04405854      -4.06769674      13.38404027
C        1.79142296      -1.79142296       1.79142296
C        3.15206509      -1.89927478       1.52169829
C        3.95933871      -2.70639010       2.32831323
C        3.41465796      -3.42263600       3.40940630
C        2.03694901      -3.29297201       3.66400466
C        1.22984021      -2.48270839       2.86064459
C        4.25387811      -4.31664287       4.31183106
H        3.61761502      -4.70924478       5.11584747
C        5.44679402      -3.60256012       4.97068871
C        6.74905687      -3.58199360       4.16561628
O        7.60105235      -2.71359622       4.35315799
N        6.99723145      -4.62551628       3.30688316
C        6.00457412      -5.53026096       3.01526697
C        4.71186333      -5.44366532       3.45963064
C        4.07159157      -6.58059252       2.91845523
C        2.65704011      -6.99973856       3.07759119
N        4.90665381      -7.30847806       2.16198727
N        6.09377270      -6.63672159       2.19467240
C        7.19859072      -7.07665823       1.45681206
S        7.07425381      -8.45854253       0.47240221
C        8.71073105      -8.23944108      -0.02244941
C        9.47250011      -9.00864078      -0.91794842
C       10.79361746      -8.61870343      -1.15084245
C       11.34446972      -7.50835913      -0.51913681
C       10.57295796      -6.75042608       0.36955589
C        9.23482813      -7.11491007       0.62365120
N        8.35923130      -6.45167310       1.46937057
H        3.59666981      -1.36251242       0.68749137
H        5.01787341      -2.77210987       2.08771306
H        1.57593394      -3.82358875       4.49511793
H        0.16815673      -2.39863150       3.07771383
H        5.18179743      -2.57171372       5.23463244
H        5.69515648      -4.12371206       5.90553891
H        7.90432038      -4.68596059       2.84889355
H        2.52714251      -8.06159635       2.84366066
H        2.01277709      -6.42076892       2.40866184
H        2.31971536      -6.84117144       4.10678043
H        9.04142348      -9.87517346      -1.40975575
H       12.37518742      -7.21710968      -0.70860642
H       10.99730083      -5.88158602       0.86400469
C       11.60000601      -9.38464135      -2.06554272
C       12.27535643     -10.02611437      -2.83160420
Br      13.36734093     -11.06332197      -4.07026083
C       -0.00445707       0.01189536      -1.78238275
H       -0.66409135       0.67374010      -2.43557963
H        0.65740317      -0.63156657      -2.45157240
C       -0.90989263      -0.90692880      -0.91072765
C        0.90977584       0.90977584      -0.90977584
C       -0.00465871       1.77757030       0.00794375
H       -0.66225468       2.44313916      -0.64384735
H        0.64322798       2.43503045       0.67728295
C       -1.78241447       0.00034974      -0.00472694
H       -2.45427497      -0.65498947       0.64260836
H       -2.43311707       0.67328779      -0.65473579
C       -0.91132561       0.90220522       0.91563759
C       -0.01476271      -0.02253852       1.78660255
H       -0.67934791      -0.69751639       2.42135241
H        0.63392994       0.61504881       2.47327442
C        0.01484550      -1.77751727      -0.01636693
H        0.67870853      -2.42144646      -0.68295456
H       -0.62264859      -2.45592969       0.64226336
C        1.78714474       0.01002794       0.00389507
H        2.44202412       0.67113390       0.66197326
H        2.45385902      -0.65136977      -0.64189061
C        0.91606151      -0.90478549       0.90901405
