130
Properties=species:S:1:pos:R:3 pbc="F F F"
C        1.78876229       1.78876229      -1.78876229
C        3.17149139       1.70552935      -1.71629390
N        4.00666750       2.46024441      -2.46942425
C        3.42882317       3.33385716      -3.33065329
C        2.05374850       3.48374771      -3.47084510
C        1.21666942       2.69198107      -2.68027462
C        1.53455312       4.45787922      -4.43291254
N        2.22272012       5.25491637      -5.18229910
C        1.25634165       5.94560226      -5.88023504
C        1.57674205       6.88277397      -6.78377049
C        0.67390012       7.67072286      -7.55115447
S        1.10006678       8.05408414      -9.18530270
C       -0.32138163       8.96770902      -9.43236025
C       -1.08928576       9.00174222      -8.29957397
C       -0.52436346       8.28248554      -7.21709968
C       -0.09639078       5.45239188      -5.47565179
O       -1.20549363       5.75961692      -5.85525681
O        0.19013527       4.50880549      -4.53301526
H        3.66572719       1.01589905      -1.03688770
H        4.13018372       3.92231287      -3.91881316
H        0.13549536       2.77338454      -2.75254245
H        2.63852967       7.04507805      -6.96501314
H       -0.51455700       9.43499020     -10.38783376
H       -0.97941762       8.21448582      -6.23663123
C       -2.34449626       9.69734022      -8.18045204
C       -3.39573505      10.27990355      -8.08068742
Br      -5.09549926      11.22185918      -7.91937648
C       -1.78876229      -1.78876229      -1.78876229
C       -3.09532533      -2.07598797      -1.42200134
N       -3.92576800      -2.85147197      -2.15909619
C       -3.42289748      -3.35863734      -3.31179880
C       -2.12743549      -3.12285842      -3.75804740
C       -1.29309930      -2.31933470      -2.97649112
C       -1.68554872      -3.71983613      -5.01996003
N       -2.36746369      -4.49874793      -5.79372397
C       -1.49211585      -4.76679186      -6.82327123
C       -1.83716301      -5.55393305      -7.85219044
C       -1.02009702      -5.91624034      -8.95944009
S       -1.76188235      -6.05988008     -10.51769118
C       -0.29668733      -6.51353088     -11.26846942
C        0.72463418      -6.57750762     -10.35915698
C        0.32115191      -6.25743359      -9.03894008
C       -0.20817237      -4.03735295      -6.58612757
O        0.80630235      -3.97007684      -7.24560561
O       -0.42873176      -3.40624382      -5.39698044
H       -3.52844088      -1.68522198      -0.50485107
H       -4.11810598      -3.97585026      -3.87735351
H       -0.27217632      -2.10706687      -3.28217915
H       -2.85535168      -5.94107166      -7.85219753
H       -0.26314735      -6.71512662     -12.32999299
H        0.98730324      -6.27387102      -8.18513164
C        2.08193062      -6.94048636     -10.67474026
C        3.21866639      -7.24448105     -10.93904126
Br       5.05667198      -7.73601476     -11.36639362
C       -1.78876229       1.78876229       1.78876229
C       -1.58588414       3.15970463       1.84772586
N       -2.33187585       3.99402137       2.61043894
C       -3.32223943       3.42767866       3.34341554
C       -3.59807670       2.06501153       3.34525308
C       -2.81152375       1.22844608       2.54895529
C       -4.69299785       1.55771565       4.17463138
N       -5.45247962       2.24218292       4.96527306
C       -6.29765544       1.29102390       5.49349960
C       -7.25631283       1.61354094       6.37343273
C       -8.17417836       0.72349765       6.99810143
S       -9.79356787       1.27143070       7.27445504
C      -10.25403719      -0.19465999       8.01931043
C       -9.20275671      -1.06948297       8.07875669
C       -8.00930721      -0.55127541       7.51718996
C       -5.96870256      -0.04552683       4.90847716
O       -6.47357702      -1.13515840       5.07096147
O       -4.91670787       0.23031946       4.08492868
H       -0.80114961       3.64457131       1.27279302
H       -3.90036530       4.12802157       3.94292288
H       -2.98721795       0.15656099       2.51764340
H       -7.35743079       2.66930086       6.62188922
H      -11.26394618      -0.33437879       8.37869957
H       -7.07123645      -1.09204397       7.49250695
C       -9.26418508      -2.38716821       8.65627914
C       -9.31563133      -3.49072959       9.13995419
Br      -9.39881558      -5.27509501       9.92201584
C        1.78876229      -1.78876229       1.78876229
C        1.47315875      -3.12339752       1.99675836
N        2.21301891      -3.95549910       2.76781814
C        3.31503655      -3.42492786       3.35336922
C        3.70809801      -2.10018240       3.20006089
C        2.92499036      -1.26489548       2.39903927
C        4.91787681      -1.62975907       3.87770900
N        5.68692568      -2.31213333       4.66087658
C        6.65902624      -1.40399940       5.01915330
C        7.66585310      -1.73881637       5.83861703
C        8.71394022      -0.88981539       6.29202184
S       10.29812941      -1.56451806       6.47680614
C       10.95472609      -0.08987239       7.03408916
C        9.99473463       0.88376558       7.10106138
C        8.71204696       0.43545689       6.69863169
C        6.39374386      -0.09844135       4.33946768
O        7.00541475       0.94765017       4.35161552
O        5.24736573      -0.34299549       3.64159479
H        0.59735158      -3.57910019       1.54206217
H        3.88450929      -4.12235949       3.96444097
H        3.19009643      -0.22174245       2.24958347
H        7.69749040      -2.77355981       6.17757065
H       12.00283984      -0.01691226       7.28851487
H        7.82695011       1.05962610       6.70437542
C       10.22659472       2.23495616       7.54165746
C       10.42077754       3.36657828       7.91065667
Br      10.73475475       5.19631553       8.50729719
C       -0.00445707       0.01189536      -1.78238275
H       -0.66409135       0.67374010      -2.43557963
H        0.65740317      -0.63156657      -2.45157240
C       -0.90989263      -0.90692880      -0.91072765
C        0.90977584       0.90977584      -0.90977584
C       -0.00465871       1.77757030       0.00794375
H       -0.66225468       2.44313916      -0.64384735
H        0.64322798       2.43503045       0.67728295
C       -1.78241447       0.00034974      -0.00472694
H       -2.45427497      -0.65498947       0.64260836
H       -2.43311707       0.67328779      -0.65473579
C       -0.91132561       0.90220522       0.91563759
C       -0.01476271      -0.02253852       1.78660255
H       -0.67934791      -0.69751639       2.42135241
H        0.63392994       0.61504881       2.47327442
C        0.01484550      -1.77751727      -0.01636693
H        0.67870853      -2.42144646      -0.68295456
H       -0.62264859      -2.45592969       0.64226336
C        1.78714474       0.01002794       0.00389507
H        2.44202412       0.67113390       0.66197326
H        2.45385902      -0.65136977      -0.64189061
C        0.91606151      -0.90478549       0.90901405
