121
Properties=species:S:1:pos:R:3 pbc="F F F"
C        0.00000000       0.00000000       0.00000000
C        0.88139090       0.88139090      -0.88139090
C        0.95380432       2.25061238      -0.64048658
C        1.76763722       3.05438537      -1.44500045
C        2.52282681       2.49692642      -2.48790593
C        2.41569061       1.12040260      -2.72895369
C        1.60568580       0.31235594      -1.92473692
C        3.34749657       3.39346800      -3.31561565
C        4.50147443       3.08663341      -3.92257589
N        5.17122896       1.89151085      -3.92146651
C        6.21594152       2.14828922      -4.63993363
O        6.34542350       3.39914340      -5.13971910
C        5.25506544       4.09739640      -4.71539917
O        4.98867369       5.25978506      -4.94150862
C        7.28958139       1.21425254      -4.98263872
C        7.22426397      -0.09173452      -4.50952326
N        8.15979729      -1.03658499      -4.77533282
C        9.20627239      -0.65515518      -5.54619488
C        9.35360035       0.62527769      -6.05900529
C        8.38037119       1.57962525      -5.77462366
H        0.38542187       2.70251027       0.16798693
H        1.81244812       4.12225791      -1.23939634
H        2.96049769       0.65411940      -3.54627211
H        1.54945861      -0.75403900      -2.12437029
H        2.96901260       4.41065521      -3.40668064
H        6.39925405      -0.43305431      -3.88781654
H        9.93761765      -1.43495541      -5.74083246
H        8.47524509       2.58799429      -6.16752552
C       10.49209550       0.96365554      -6.87320995
C       11.44558518       1.24704700      -7.55510635
Br      12.98729735       1.70526701      -8.65767517
C       -0.88139090      -0.88139090      -0.88139090
C       -1.03758950      -0.57657632      -2.23073745
C       -1.83983007      -1.38993267      -3.03726029
C       -2.48280383      -2.51843495      -2.50642039
C       -2.33229476      -2.79256697      -1.14018517
C       -1.52824746      -1.98380590      -0.33072531
C       -3.33112001      -3.32810748      -3.39735273
C       -3.55258467      -4.64637677      -3.31172229
N       -3.05746406      -5.53381914      -2.39292311
C       -3.57014536      -6.65811285      -2.77590616
O       -4.36925915      -6.64711180      -3.86791505
C       -4.41719404      -5.35451668      -4.29615029
O       -5.02326738      -4.91512100      -5.25157900
C       -3.38160899      -7.96358972      -2.14127395
C       -2.57719054      -8.05425099      -1.01061117
N       -2.34441954      -9.21122804      -0.34289754
C       -2.94160801     -10.32480015      -0.83090393
C       -3.75747593     -10.32765689      -1.95275050
C       -3.98402893      -9.12809690      -2.62249428
H       -0.54110104       0.28673699      -2.66558117
H       -1.94772578      -1.13620828      -4.09016830
H       -2.83806243      -3.63966415      -0.68316262
H       -1.41774118      -2.22484264       0.72279393
H       -3.79413672      -2.77728659      -4.21492514
H       -2.08160161      -7.18126619      -0.59114848
H       -2.73546440     -11.23454217      -0.27348813
H       -4.62101976      -9.10747895      -3.50226619
C       -4.36223204     -11.54899082      -2.41773813
C       -4.86871528     -12.57185798      -2.80716528
Br      -5.68765584     -14.22574766      -3.43683603
C       -0.88139090       0.88139090       0.88139090
C       -0.56937778       1.04763687       2.22788863
C       -1.37448190       1.86139548       3.03114566
C       -2.48946155       2.52324344       2.49495418
C       -2.79997812       2.32195064       1.14311813
C       -1.99563339       1.51173923       0.33540604
C       -3.31316318       3.35197852       3.39143853
C       -4.00318447       4.45032016       3.05717911
N       -4.10802075       5.04752178       1.82866379
C       -4.87139198       6.06396053       2.06881186
O       -5.30757992       6.23891041       3.33779567
C       -4.78157273       5.21688040       4.06940788
O       -4.92658228       5.00727030       5.25611479
C       -5.32818393       7.05997590       1.09831283
C       -4.92542559       6.94424774      -0.22762063
N       -5.29803968       7.80625113      -1.20574569
C       -6.10680326       8.82887601      -0.83836718
C       -6.55537933       9.02263131       0.45987269
C       -6.16150503       8.12464871       1.44846636
H        0.29506260       0.55272150       2.66228631
H       -1.11279015       1.98041162       4.08090059
H       -3.67264557       2.79202862       0.69621501
H       -2.25061922       1.38176353      -0.71259286
H       -3.32504554       3.02960231       4.43170059
H       -4.27614356       6.13642572      -0.55855301
H       -6.38726793       9.50104609      -1.64481932
H       -6.50261085       8.25676370       2.47139036
C       -7.41515939      10.13202611       0.78177548
C       -8.13522520      11.06114426       1.05136907
Br      -9.29951071      12.56344972       1.48727910
C        0.88139090      -0.88139090       0.88139090
C        2.17203426      -1.20266094       0.47020807
C        2.97965499      -2.00430808       1.28305996
C        2.50984459      -2.48191504       2.51589954
C        1.19880246      -2.16739853       2.89884591
C        0.38891158      -1.36323433       2.09063275
C        3.39640769      -3.33818658       3.32198595
C        3.42611655      -3.42633245       4.65823473
N        2.65305826      -2.75941086       5.57173720
C        3.09995891      -3.20200681       6.70219866
O        4.10614183      -4.10636186       6.67178231
C        4.39336005      -4.31774955       5.35675141
O        5.23830375      -5.05670495       4.89495868
C        2.62270319      -2.82902293       8.03474654
C        1.58689308      -1.90805597       8.14710365
N        1.06576480      -1.50166256       9.33111776
C        1.60773366      -2.03971103      10.44986739
C        2.64333177      -2.96242985      10.43212171
C        3.16268466      -3.36682734       9.20510809
H        2.56034167      -0.83566935      -0.47606581
H        3.98642858      -2.24261914       0.94505464
H        0.78600597      -2.54281337       3.83206986
H       -0.61952504      -1.12345335       2.41586159
H        4.10668637      -3.93168089       2.74798118
H        1.12802749      -1.45531321       7.27067557
H        1.16803683      -1.69394995      11.38150792
H        3.97273927      -4.08976236       9.16826327
C        3.17284256      -3.49560762      11.66051081
C        3.61630786      -3.94214399      12.68928669
Br       4.33335373      -4.66415555      14.35273026
