113
Properties=species:S:1:pos:R:3 pbc="F F F"
C        0.00000000       0.00000000       0.00000000
C        0.88139090       0.88139090      -0.88139090
C        0.95380432       2.25061238      -0.64048658
C        1.76763722       3.05438537      -1.44500045
C        2.52282681       2.49692642      -2.48790593
C        2.41569061       1.12040260      -2.72895369
C        1.60568580       0.31235594      -1.92473692
C        3.34749657       3.39346800      -3.31561565
C        4.50147443       3.08663341      -3.92257589
N        5.17122896       1.89151085      -3.92146651
C        6.21594152       2.14828922      -4.63993363
O        6.34542350       3.39914340      -5.13971910
C        5.25506544       4.09739640      -4.71539917
O        4.98867369       5.25978506      -4.94150862
C        7.28958139       1.21425254      -4.98263872
C        7.22426397      -0.09173452      -4.50952326
N        8.15979729      -1.03658499      -4.77533282
C        9.20627239      -0.65515518      -5.54619488
C        9.35360035       0.62527769      -6.05900529
Br      10.84423124       1.06831558      -7.12504288
C        8.38037119       1.57962525      -5.77462366
H        0.38542187       2.70251027       0.16798693
H        1.81244812       4.12225791      -1.23939634
H        2.96049769       0.65411940      -3.54627211
H        1.54945861      -0.75403900      -2.12437029
H        2.96901260       4.41065521      -3.40668064
H        6.39925405      -0.43305431      -3.88781654
H        9.93761765      -1.43495541      -5.74083246
H        8.47524509       2.58799429      -6.16752552
C       -0.88139090      -0.88139090      -0.88139090
C       -1.01613575      -0.59227456      -2.23649296
C       -1.81846651      -1.40568508      -3.04287144
C       -2.48296512      -2.51873810      -2.50595596
C       -2.35372539      -2.77688245      -1.13443905
C       -1.54968632      -1.96805132      -0.32504102
C       -3.33022469      -3.32897508      -3.39738045
C       -3.57001670      -4.64303842      -3.29762861
N       -3.09847101      -5.52470022      -2.36103509
C       -3.62083532      -6.64719249      -2.73613657
O       -4.40555849      -6.64016298      -3.83856453
C       -4.43102928      -5.35277342      -4.28405831
O       -5.01890123      -4.91812827      -5.25293788
C       -3.45762262      -7.94657645      -2.08227359
C       -2.66913807      -8.03281520      -0.94009943
N       -2.46018162      -9.18386300      -0.25450050
C       -3.06554128     -10.29591837      -0.73585244
C       -3.86681159     -10.30291843      -1.86815330
Br      -4.67155178     -11.89947773      -2.46656018
C       -4.06896738      -9.10940182      -2.55625091
H       -0.50280990       0.25878404      -2.67591936
H       -1.90941619      -1.16439362      -4.10029256
H       -2.87640318      -3.61131740      -0.67316862
H       -1.45596831      -2.19668302       0.73286144
H       -3.77538691      -2.78296744      -4.22799409
H       -2.16762469      -7.16089087      -0.52550072
H       -2.87854569     -11.20087285      -0.16407616
H       -4.69421174      -9.09207353      -3.44447963
C       -0.88139090       0.88139090       0.88139090
C       -0.58524318       1.02566937       2.23399073
C       -1.39020841       1.83945083       3.03736380
C       -2.48908926       2.52316501       2.49540490
C       -2.78413174       2.34389632       1.13701884
C       -1.97981939       1.53373038       0.32922889
C       -3.31369764       3.35093887       3.39194371
C       -3.98463584       4.46272326       3.06332463
N       -4.06514754       5.07743082       1.84162795
C       -4.81818373       6.10072856       2.08525208
O       -5.26895378       6.26473627       3.35059596
C       -4.76630681       5.22620020       4.07535399
O       -4.92992379       5.00290807       5.25713552
C       -5.24877680       7.11548107       1.12221479
C       -4.82988758       7.01188304      -0.19971792
N       -5.17798388       7.89162231      -1.17106107
C       -5.97802397       8.92003328      -0.80074517
C       -6.44132301       9.10262272       0.49393760
Br      -7.55330389      10.56438696       0.91989884
C       -6.07258496       8.18648818       1.47554696
H        0.26670625       0.51355137       2.67310011
H       -1.14102864       1.94109600       4.09197772
H       -3.64446730       2.83145632       0.68496558
H       -2.22246251       1.42101475      -0.72368736
H       -3.34374070       3.01505276       4.42755498
H       -4.18695402       6.19988855      -0.53282629
H       -6.23878727       9.60647550      -1.60176806
H       -6.42556481       8.30964384       2.49555625
C        0.88139090      -0.88139090       0.88139090
C        2.16278700      -1.22369152       0.45842476
C        2.97054602      -2.02527538       1.27120164
C        2.51026253      -2.48184500       2.51555164
C        1.20803711      -2.14638995       2.91061985
C        0.39809680      -1.34220429       2.10247757
C        3.39619755      -3.33910867       3.32127400
C        3.44142085      -3.41121333       4.65804955
N        2.68801277      -2.72358010       5.57261344
C        3.14345831      -3.15778886       6.70291720
O        4.13801278      -4.07487935       6.67139387
C        4.40625633      -4.30593948       5.35566520
O        5.23626664      -5.06094576       4.89275497
C        2.68740677      -2.76258133       8.03648455
C        1.66445145      -1.82750793       8.15009333
N        1.16309872      -1.40017355       9.33527285
C        1.71228120      -1.93114505      10.45388583
C        2.73617845      -2.86680646      10.43489842
Br       3.44077545      -3.55366671      12.04314754
C        3.23524635      -3.29265081       9.20672295
H        2.54378267      -0.87319148      -0.49702893
H        3.97004271      -2.28020513       0.92385453
H        0.80229061      -2.50516785       3.85343074
H       -0.60320335      -1.08594096       2.43705229
H        4.09195427      -3.94837998       2.74601420
H        1.20032323      -1.37988806       7.27380498
H        1.28846820      -1.56854223      11.38648427
H        4.03584873      -4.02599124       9.16892494
