150
Properties=species:S:1:pos:R:3 pbc="F F F"
C        4.54049498       5.46322389      -3.86845105
O        4.20179555       4.13827171      -4.25716312
C        3.40397891       3.40691689      -3.41088429
C        2.91979869       3.88442362      -2.18520768
C        2.11020465       3.08027834      -1.37999629
C        1.79193683       1.79193683      -1.79193683
C        2.27265088       1.29838026      -3.00321754
C        3.06631615       2.10156169      -3.83945328
C        3.59286876       1.57988459      -5.12059878
C        2.98835496       0.71838303      -5.94922271
N        1.76724209       0.11474051      -5.80153305
C        1.66760296      -0.59814980      -6.87635978
O        2.69080392      -0.55284108      -7.75978650
C        3.61795344       0.29589309      -7.23086221
O        4.68789510       0.60713227      -7.71169586
C        0.54855772      -1.47186869      -7.23461142
C        0.50483041      -2.15199611      -8.44550862
N       -0.51307497      -2.97032102      -8.81031622
C       -1.52827131      -3.11317114      -7.92366984
C       -1.56742359      -2.47463166      -6.69317610
Br      -3.01804836      -2.73342323      -5.51783584
C       -0.51309024      -1.63880401      -6.34095059
H        5.16768913       5.89222911      -4.65583512
H        5.12319895       5.46625514      -2.94142281
H        3.64633530       6.08865713      -3.77826549
H        3.15340373       4.88116387      -1.82573706
H        1.73903056       3.46808090      -0.43490114
H        2.02430913       0.28082640      -3.29282136
H        4.56402822       1.98028409      -5.41027892
H        1.29643029      -2.06631429      -9.18554729
H       -2.32725835      -3.77528157      -8.24649051
H       -0.51397352      -1.12386867      -5.38299445
C       -3.74379908      -5.30897509      -4.81939574
O       -4.26332949      -4.14590219      -4.18799869
C       -3.40808730      -3.40345581      -3.41023698
C       -2.06339580      -3.73368927      -3.19234491
C       -1.25523243      -2.92589108      -2.38935577
C       -1.79193683      -1.79193683      -1.79193683
C       -3.12926438      -1.45435512      -1.99062918
C       -3.95107967      -2.23969217      -2.81655929
C       -5.37618103      -1.89615118      -3.02101993
C       -5.90891060      -0.66849940      -3.07855070
N       -5.27364925       0.53848174      -2.94834815
C       -6.23819686       1.38783535      -3.09545144
O       -7.47979993       0.89930646      -3.31725588
C       -7.36298455      -0.45938599      -3.32233820
O       -8.24925258      -1.27232413      -3.48514653
C       -6.12390343       2.84629838      -3.03369540
C       -7.21085272       3.67980336      -3.26729355
N       -7.14323310       5.03322913      -3.21691625
C       -5.93604440       5.57272974      -2.91891273
C       -4.79914875       4.81836865      -2.67034074
Br      -3.15942834       5.65180077      -2.25873667
C       -4.89189189       3.43192094      -2.72908539
H       -4.55375234      -5.76590824      -5.39609278
H       -3.40770409      -6.04324822      -4.07992460
H       -2.94132946      -5.05300264      -5.51892582
H       -1.61072152      -4.61509597      -3.63448718
H       -0.21321648      -3.19376040      -2.23503572
H       -3.52869568      -0.57270571      -1.49655550
H       -6.03409541      -2.75221688      -3.16827894
H       -8.19635896       3.29037121      -3.50967553
H       -5.91625632       6.65879648      -2.88649075
H       -4.01852247       2.81231497      -2.53894477
C       -5.14744766       5.02236748       3.70235477
O       -4.15735506       4.17267447       4.26720084
C       -3.40327219       3.40954070       3.40896720
C       -3.56365663       3.40928707       2.01648629
C       -2.75520994       2.60625696       1.20901239
C       -1.79193683       1.79193683       1.79193683
C       -1.62567230       1.77320531       3.17537106
C       -2.41115327       2.59388137       4.00229648
C       -2.25078536       2.56907847       5.47348830
C       -1.11367291       2.38514514       6.15714266
N        0.14571291       2.16469235       5.66453622
C        0.86110527       2.06887135       6.73804688
O        0.23254131       2.20202852       7.92826214
C       -1.08455601       2.41445885       7.64569387
O       -1.98856799       2.57983301       8.43832223
C        2.30197130       1.81528899       6.79798275
C        2.99514851       1.79147558       8.00201584
N        4.32764535       1.55819329       8.09637228
C        4.99192556       1.33869595       6.93545700
C        4.38170738       1.34276178       5.69006644
Br       5.38197485       1.02362450       4.12471459
C        3.01425139       1.58583368       5.61747405
H       -5.63965386       5.55311735       4.52298214
H       -5.91256384       4.44213473       3.17617834
H       -4.69532050       5.77255811       3.04537931
H       -4.31011093       4.02482687       1.52536686
H       -2.88944438       2.62202619       0.13054202
H       -0.87786171       1.11323707       3.60685812
H       -3.16665214       2.75363816       6.03430094
H        2.50282442       1.96254196       8.95594574
H        6.05729514       1.15507978       7.04616594
H        2.50619720       1.59545100       4.65589847
C        5.09070466      -5.08192127       3.69954399
O        4.16142964      -4.16813738       4.26766335
C        3.40325868      -3.40929583       3.40922558
C        3.50374527      -3.47308359       2.01260112
C        2.69511783      -2.67000400       1.20535745
C        1.79193683      -1.79193683       1.79193683
C        1.68597263      -1.70931701       3.17895904
C        2.47178318      -2.52822944       4.00731850
C        2.37571226      -2.43619821       5.48144166
C        1.27742852      -2.17582798       6.20270419
N        0.00821893      -1.92206251       5.75323421
C       -0.65601165      -1.75170045       6.85012415
O        0.01694283      -1.86266953       8.01813699
C        1.31089883      -2.14272546       7.69108444
O        2.24046882      -2.31397378       8.45228064
C       -2.08136181      -1.43440620       6.95825606
C       -2.72078395      -1.33151709       8.18760977
N       -4.03731540      -1.03771424       8.32652138
C       -4.74112359      -0.83782467       7.18552631
C       -4.18547449      -0.91914678       5.91744856
Br      -5.23790502      -0.62201144       4.38225782
C       -2.83351548      -1.22332534       5.79924648
H        5.59539124      -5.59911874       4.52124338
H        5.85576606      -4.55707664       3.11803421
H        4.58044044      -5.83840513       3.09441236
H        4.20258205      -4.13966701       1.51805560
H        2.78228848      -2.73577384       0.12395027
H        0.98505267      -1.00077375       3.61213048
H        3.30640213      -2.63662392       6.01156518
H       -2.19550359      -1.48419639       9.12697049
H       -5.79233726      -0.60436741       7.33192044
H       -2.36792546      -1.29416146       4.81891627
C       -0.00445707       0.01189536      -1.78238275
H       -0.66409135       0.67374010      -2.43557963
H        0.65740317      -0.63156657      -2.45157240
C       -0.90989263      -0.90692880      -0.91072765
C        0.90977584       0.90977584      -0.90977584
C       -0.00465871       1.77757030       0.00794375
H       -0.66225468       2.44313916      -0.64384735
H        0.64322798       2.43503045       0.67728295
C       -1.78241447       0.00034974      -0.00472694
H       -2.45427497      -0.65498947       0.64260836
H       -2.43311707       0.67328779      -0.65473579
C       -0.91132561       0.90220522       0.91563759
C       -0.01476271      -0.02253852       1.78660255
H       -0.67934791      -0.69751639       2.42135241
H        0.63392994       0.61504881       2.47327442
C        0.01484550      -1.77751727      -0.01636693
H        0.67870853      -2.42144646      -0.68295456
H       -0.62264859      -2.45592969       0.64226336
C        1.78714474       0.01002794       0.00389507
H        2.44202412       0.67113390       0.66197326
H        2.45385902      -0.65136977      -0.64189061
C        0.91606151      -0.90478549       0.90901405
