146
Properties=species:S:1:pos:R:3 pbc="F F F"
C        1.79248673       1.79248673      -1.79248673
C        1.61823488       3.17388392      -1.77710308
C        2.42019947       3.97477644      -2.58648426
C        3.39704995       3.39147855      -3.39872512
C        3.59270409       2.00144059      -3.40659077
C        2.76363815       1.20521202      -2.60523785
C        4.62689116       1.44644593      -4.29572336
C        5.34359308       0.33105653      -4.09722794
N        5.28072996      -0.54312918      -3.04778885
C        6.18476707      -1.42184279      -3.34853751
O        6.89407536      -1.22317653      -4.48195725
C        6.39704684      -0.09440842      -5.05792813
O        6.75186771       0.42673637      -6.09550654
C        6.56423782      -2.57902018      -2.52299104
C        6.43125470      -2.41350633      -1.13306431
C        6.76493571      -3.44682029      -0.25650237
C        7.23067844      -4.65723486      -0.75884612
C        7.35181214      -4.83843636      -2.13749847
C        7.01446917      -3.80737835      -3.02573771
H        0.86284615       3.63233503      -1.14464868
H        2.28800726       5.05394834      -2.58617161
H        4.01302096       4.03918023      -4.01986708
H        2.86895784       0.12349307      -2.60909270
H        4.83200930       2.03845009      -5.18704437
H        6.06577863      -1.47315917      -0.72254021
H        6.65701208      -3.30566933       0.81685183
H        7.48866091      -5.46613080      -0.07900025
H        7.70017888      -5.79941471      -2.51163550
C        7.10039924      -4.12379319      -4.42791376
C        7.17236567      -4.38879061      -5.60223621
Br       7.28872930      -4.81726903      -7.50101628
C       -1.79248673      -1.79248673      -1.79248673
C       -1.28683625      -2.98945429      -2.29293134
C       -2.09159641      -3.78860847      -3.10125529
C       -3.39900231      -3.39158282      -3.39666849
C       -3.92363679      -2.19594408      -2.88115459
C       -3.09588473      -1.38978462      -2.08841868
C       -5.30224599      -1.82508177      -3.24173269
C       -6.16087814      -1.10736489      -2.50363453
N       -5.96258563      -0.55336533      -1.26943867
C       -7.10271724       0.00958740      -1.01833195
O       -8.08326238      -0.13157017      -1.93802353
C       -7.54926394      -0.84278763      -2.96851498
O       -8.09575188      -1.17919296      -3.99916579
C       -7.45202911       0.72480405       0.21901638
C       -6.81630811       0.27557147       1.38992396
C       -7.07599679       0.88144823       2.61993076
C       -7.96968358       1.94464654       2.69274733
C       -8.59470267       2.40935142       1.53447699
C       -8.33623585       1.80966376       0.29374356
H       -0.27251385      -3.30425348      -2.06306253
H       -1.70413545      -4.72214208      -3.50184967
H       -4.00887227      -4.03504418      -4.02815182
H       -3.46081840      -0.44389707      -1.69682813
H       -5.64553699      -2.21092683      -4.20103994
H       -6.11179918      -0.55418384       1.35082336
H       -6.57702220       0.52422592       3.51830536
H       -8.17220789       2.42161057       3.64906696
H       -9.27639946       3.25463128       1.60936851
C       -8.97087238       2.41481326      -0.84846070
C       -9.50238047       2.92162597      -1.80505676
Br     -10.36178410       3.74109925      -3.35179169
C       -1.79248673       1.79248673       1.79248673
C       -3.17748045       1.72734803       1.66439339
C       -3.97861831       2.53675559       2.46608627
C       -3.39153956       3.39890096       3.39681310
C       -1.99698439       3.45750969       3.54624138
C       -1.20163381       2.65508092       2.71737329
C       -1.43888327       4.39745170       4.53272548
C       -0.29528426       4.25831791       5.21827539
N        0.61053385       3.23577725       5.16014623
C        1.50723874       3.59398703       6.02471349
O        1.29407129       4.74323847       6.70368891
C        0.13168090       5.26625781       6.22598964
O       -0.41177019       6.29781709       6.56452335
C        2.70247901       2.81868910       6.39199859
C        2.57866598       1.42056808       6.30891058
C        3.65039314       0.58885228       6.63615865
C        4.85784144       1.14458704       7.04554410
C        4.99731916       2.53155542       7.11663799
C        3.92734435       3.37488759       6.78528529
H       -3.63870404       1.05607191       0.94505391
H       -5.06085982       2.49769075       2.36957665
H       -4.03937816       4.01902603       4.01366408
H       -0.11782114       2.69688061       2.78684184
H       -2.05307543       5.27571929       4.72870905
H        1.64117412       0.96846668       5.98786711
H        3.54129247      -0.49142710       6.56721049
H        5.69649616       0.49973452       7.29829200
H        5.95607327       2.94740227       7.42107067
C        4.19999661       4.78850589       6.81601054
C        4.42834288       5.97241122       6.84174293
Br       4.79755949       7.88668600       6.88335004
C        1.79248673      -1.79248673       1.79248673
C        3.10100796      -1.40258444       2.06562948
C        3.90429402      -2.21163184       2.86553431
C        3.39243828      -3.39988994       3.39492540
C        2.06863436      -3.79154011       3.14056098
C        1.27845206      -2.98036596       2.31526999
C        1.59345381      -5.06190858       3.71369806
C        0.33719054      -5.36174447       4.07294256
N       -0.78036987      -4.57870068       3.98705882
C       -1.70672192      -5.34176881       4.47641490
O       -1.33584614      -6.56066979       4.92803244
C       -0.00084736      -6.67390745       4.68750647
O        0.71980012      -7.61908542       4.93522509
C       -3.11824587      -4.96859155       4.65786299
C       -3.36756784      -3.60804967       4.91033085
C       -4.67019748      -3.14478688       5.10002840
C       -5.73739779      -4.03432118       5.03536631
C       -5.50328258      -5.38443668       4.76972015
C       -4.19824344      -5.85784325       4.57322871
H        3.50227569      -0.47798189       1.65957227
H        4.92926242      -1.91904372       3.07982108
H        4.03925458      -4.01324100       4.01957269
H        0.25849348      -3.26844346       2.07460667
H        2.36868771      -5.80922983       3.87958623
H       -2.54394078      -2.89718205       4.96191840
H       -4.84923032      -2.08939343       5.29432781
H       -6.75439269      -3.67650894       5.17941412
H       -6.35326617      -6.06125288       4.70441295
C       -4.07319119      -7.25013783       4.22757317
C       -3.96845993      -8.41618453       3.93808666
Br      -3.79911834     -10.30158344       3.47001145
C       -0.00445707       0.01189536      -1.78238275
H       -0.66409135       0.67374010      -2.43557963
H        0.65740317      -0.63156657      -2.45157240
C       -0.90989263      -0.90692880      -0.91072765
C        0.90977584       0.90977584      -0.90977584
C       -0.00465871       1.77757030       0.00794375
H       -0.66225468       2.44313916      -0.64384735
H        0.64322798       2.43503045       0.67728295
C       -1.78241447       0.00034974      -0.00472694
H       -2.45427497      -0.65498947       0.64260836
H       -2.43311707       0.67328779      -0.65473579
C       -0.91132561       0.90220522       0.91563759
C       -0.01476271      -0.02253852       1.78660255
H       -0.67934791      -0.69751639       2.42135241
H        0.63392994       0.61504881       2.47327442
C        0.01484550      -1.77751727      -0.01636693
H        0.67870853      -2.42144646      -0.68295456
H       -0.62264859      -2.45592969       0.64226336
C        1.78714474       0.01002794       0.00389507
H        2.44202412       0.67113390       0.66197326
H        2.45385902      -0.65136977      -0.64189061
C        0.91606151      -0.90478549       0.90901405
