138
Properties=species:S:1:pos:R:3 pbc="F F F"
C        1.79248673       1.79248673      -1.79248673
C        1.61823488       3.17388392      -1.77710308
C        2.42019947       3.97477644      -2.58648426
C        3.39704995       3.39147855      -3.39872512
C        3.59270409       2.00144059      -3.40659077
C        2.76363815       1.20521202      -2.60523785
C        4.62689116       1.44644593      -4.29572336
C        5.34359308       0.33105653      -4.09722794
N        5.28072996      -0.54312918      -3.04778885
C        6.18476707      -1.42184279      -3.34853751
O        6.89407536      -1.22317653      -4.48195725
C        6.39704684      -0.09440842      -5.05792813
O        6.75186771       0.42673637      -6.09550654
C        6.56423782      -2.57902018      -2.52299104
C        6.43125470      -2.41350633      -1.13306431
C        6.76493571      -3.44682029      -0.25650237
C        7.23067844      -4.65723486      -0.75884612
C        7.35181214      -4.83843636      -2.13749847
C        7.01446917      -3.80737835      -3.02573771
Br       7.12784247      -4.22484566      -4.87572259
H        0.86284615       3.63233503      -1.14464868
H        2.28800726       5.05394834      -2.58617161
H        4.01302096       4.03918023      -4.01986708
H        2.86895784       0.12349307      -2.60909270
H        4.83200930       2.03845009      -5.18704437
H        6.06577863      -1.47315917      -0.72254021
H        6.65701208      -3.30566933       0.81685183
H        7.48866091      -5.46613080      -0.07900025
H        7.70017888      -5.79941471      -2.51163550
C       -1.79248673      -1.79248673      -1.79248673
C       -1.46345744      -3.13348350      -1.97228094
C       -2.26648408      -3.93355750      -2.78141860
C       -3.39788915      -3.39137087      -3.39799361
C       -3.74802807      -2.04542084      -3.20728655
C       -2.91878730      -1.24560005      -2.40970067
C       -4.94251715      -1.52975888      -3.89678442
C       -5.74907368      -0.54382936      -3.47897452
N       -5.65221085       0.20765583      -2.34083461
C       -6.68014857       0.99270085      -2.42401406
O       -7.50072057       0.83433223      -3.48646774
C       -6.95706877      -0.15021825      -4.25327953
O       -7.37985671      -0.59217241      -5.30208151
C       -7.07945839       1.99210555      -1.42085584
C       -6.75334648       1.68956263      -0.08702883
C       -7.08712439       2.56697376       0.94553283
C       -7.74601014       3.75722429       0.65649614
C       -8.06077728       4.07546393      -0.66556091
C       -7.72512651       3.20205414      -1.70975616
Br      -8.11864805       3.80712723      -3.46719858
H       -0.58716877      -3.56052652      -1.49213456
H       -2.01480589      -4.98035121      -2.93297011
H       -4.01094822      -4.03803140      -4.02308865
H       -3.14471832      -0.19248654      -2.26433874
H       -5.19123581      -2.03898999      -4.82727796
H       -6.23530201       0.76306508       0.15707726
H       -6.82863550       2.32086071       1.97328388
H       -8.00492030       4.44519988       1.45819006
H       -8.55966130       5.02037373      -0.87311210
C       -1.79248673       1.79248673       1.79248673
C       -2.97064554       1.27454639       2.32402994
C       -3.77532684       2.08291804       3.12321528
C       -3.39329441       3.40012069       3.39383853
C       -2.19788640       3.92490593       2.87794312
C       -1.40917755       3.10855629       2.05635418
C       -1.85886827       5.32432247       3.18586971
C       -0.62984365       5.84886030       3.29317361
N        0.57647991       5.22433185       3.13753769
C        1.42650104       6.17688969       3.36107313
O        0.93022592       7.38947270       3.69360931
C       -0.42584672       7.27682999       3.65788985
O       -1.24803530       8.14073425       3.88534108
C        2.89104720       6.03658111       3.36267477
C        3.38868880       4.78216170       3.75733978
C        4.76246904       4.54009348       3.79699336
C        5.65316943       5.54649237       3.43896676
C        5.17024522       6.79070314       3.03041634
C        3.79153760       7.04125686       2.98310927
Br       3.27144331       8.74010395       2.31005876
H       -3.27001610       0.25014276       2.11967100
H       -4.70020095       1.68979887       3.53812740
H       -4.03778655       4.01066417       4.02361755
H       -0.49211938       3.49232741       1.61709681
H       -2.71385099       5.97415338       3.36949940
H        2.70543316       3.98192822       4.03866461
H        5.13424122       3.56478557       4.10394657
H        6.72452996       5.36063123       3.46542910
H        5.88284363       7.55909551       2.73614779
C        1.79248673      -1.79248673       1.79248673
C        3.17795814      -1.71245152       1.67881221
C        3.97917273      -2.52186379       2.48042366
C        3.39156083      -3.39895265       3.39674014
C        1.99625404      -3.47276467       3.53171674
C        1.20116296      -2.67000347       2.70292158
C        1.43784143      -4.42791157       4.50330745
C        0.28622493      -4.30685918       5.17879345
N       -0.62909541      -3.29275499       5.12173004
C       -1.53066063      -3.66834706       5.97377535
O       -1.31277361      -4.82213653       6.64349316
C       -0.14059765      -5.32891779       6.17224640
O        0.40972129      -6.35839268       6.50599666
C       -2.73710403      -2.90853777       6.33677493
C       -2.62638116      -1.50850927       6.26868458
C       -3.70949026      -0.69067421       6.59343384
C       -4.91532586      -1.26230598       6.98530958
C       -5.04170469      -2.65121789       7.04136105
C       -3.96019193      -3.48064463       6.71237583
Br      -4.30174730      -5.34948660       6.73098011
H        3.63954394      -1.02955273       0.97073319
H        5.06186987      -2.47119318       2.39506416
H        4.03942894      -4.01877245       4.01386688
H        0.11718811      -2.72315536       2.76120013
H        2.05877382      -5.30199680       4.69673315
H       -1.69031498      -1.04403538       5.96143927
H       -3.61045849       0.39125843       6.53620784
H       -5.76279495      -0.62828180       7.23604351
H       -5.99922790      -3.07948492       7.33214266
C       -0.00445707       0.01189536      -1.78238275
H       -0.66409135       0.67374010      -2.43557963
H        0.65740317      -0.63156657      -2.45157240
C       -0.90989263      -0.90692880      -0.91072765
C        0.90977584       0.90977584      -0.90977584
C       -0.00465871       1.77757030       0.00794375
H       -0.66225468       2.44313916      -0.64384735
H        0.64322798       2.43503045       0.67728295
C       -1.78241447       0.00034974      -0.00472694
H       -2.45427497      -0.65498947       0.64260836
H       -2.43311707       0.67328779      -0.65473579
C       -0.91132561       0.90220522       0.91563759
C       -0.01476271      -0.02253852       1.78660255
H       -0.67934791      -0.69751639       2.42135241
H        0.63392994       0.61504881       2.47327442
C        0.01484550      -1.77751727      -0.01636693
H        0.67870853      -2.42144646      -0.68295456
H       -0.62264859      -2.45592969       0.64226336
C        1.78714474       0.01002794       0.00389507
H        2.44202412       0.67113390       0.66197326
H        2.45385902      -0.65136977      -0.64189061
C        0.91606151      -0.90478549       0.90901405
