146
Properties=species:S:1:pos:R:3 pbc="F F F"
C        1.79153382       1.79153382      -1.79153382
C        3.17904735       1.70894886      -1.68530662
C        3.98536194       2.51710191      -2.49153657
C        3.40268182       3.40743139      -3.40311131
C        2.00728157       3.48278398      -3.50365045
C        1.20198880       2.67360446      -2.69680982
C        4.27797787       4.24795954      -4.23621577
N        5.57226809       4.26284591      -4.23383536
C        5.86775636       5.21373357      -5.17892931
C        7.11841873       5.56401626      -5.50430606
C        7.48460387       6.57418742      -6.49550699
C        7.65488802       6.21567673      -7.83775017
C        8.00524209       7.18094361      -8.78427213
C        8.18740666       8.50762220      -8.39402033
C        8.01660399       8.86311719      -7.05696653
C        7.66717258       7.90507256      -6.10522367
C        4.60818608       5.77138183      -5.75568653
O        4.43353002       6.61740236      -6.60702438
O        3.64030339       5.08582654      -5.08424159
H        3.64199583       1.02245890      -0.98054454
H        5.06810277       2.44710936      -2.40214007
H        1.52931448       4.16514204      -4.20300237
H        0.12013093       2.73933441      -2.78075099
H        7.95349670       5.08016701      -5.00499436
H        7.51067888       5.18607945      -8.15754239
H        8.13059426       6.89918168      -9.82668034
H        8.45634082       9.25386806      -9.13677716
H        7.53308655       8.19387974      -5.06599989
C        8.20473025      10.23270382      -6.65392689
C        8.36228599      11.37973263      -6.31638119
Br       8.61704030      13.23438120      -5.77059835
C       -1.79153382      -1.79153382      -1.79153382
C       -1.20494552      -2.73701256      -2.63134475
C       -2.01234379      -3.54266518      -3.43899145
C       -3.40594121      -3.40137487      -3.40590845
C       -3.98660943      -2.44916034      -2.55794623
C       -3.17780075      -1.64419281      -1.75040952
C       -4.22968049      -4.26194628      -4.27052641
N       -3.80828751      -5.17359886      -5.08706299
C       -4.97228400      -5.65599366      -5.63214158
C       -5.00648837      -6.62944037      -6.55081231
C       -6.21663924      -7.17101720      -7.16664184
C       -6.88925100      -8.24564453      -6.57341939
C       -8.04502171      -8.76307948      -7.16235665
C       -8.53317075      -8.20981396      -8.34606449
C       -7.86253570      -7.13904666      -8.93510534
C       -6.70724892      -6.61662455      -8.35359534
C       -6.14576574      -4.93653849      -5.05295021
O       -7.33383987      -5.06187962      -5.26223727
O       -5.56379072      -4.05950061      -4.18708019
H       -0.12453742      -2.85447619      -2.66598566
H       -1.54653824      -4.27825926      -4.09255470
H       -5.06558710      -2.31904742      -2.51282438
H       -3.63679229      -0.90724397      -1.09618007
H       -4.07454042      -7.07151458      -6.89260306
H       -6.52336063      -8.68353778      -5.64740230
H       -8.56759201      -9.59386909      -6.69499519
H       -9.43513676      -8.61532204      -8.79652724
H       -6.19421496      -5.77928589      -8.81946533
C       -8.36633163      -6.56783349     -10.15719584
C       -8.78826073      -6.08944246     -11.18069662
Br      -9.47048438      -5.31592463     -12.83561083
C       -1.79153382       1.79153382       1.79153382
C       -1.21845621       2.82788919       2.52695743
C       -2.02571910       3.63356649       3.33471482
C       -3.40563079       3.40139272       3.40620101
C       -3.97287537       2.35815246       2.66268817
C       -3.16424812       1.55325508       1.85489988
C       -4.22927308       4.26459968       4.26828042
N       -3.81983901       5.25510638       4.99400397
C       -4.97682106       5.69814371       5.58545448
C       -5.01866760       6.72798753       6.44008593
C       -6.22112055       7.23183288       7.10134485
C       -7.00230540       8.21805869       6.48795083
C       -8.15068742       8.69951029       7.12026011
C       -8.52302233       8.19843207       8.36759479
C       -7.74433743       7.21563655       8.97671373
C       -6.59562028       6.72969706       8.35215148
C       -6.13298816       4.86707072       5.13519555
O       -7.31100859       4.93010318       5.41684500
O       -5.54899915       3.97190233       4.28947004
H       -0.14862477       3.01639219       2.47998230
H       -1.57045503       4.44048006       3.90641711
H       -5.04108814       2.15643014       2.69994060
H       -3.61267813       0.74538346       1.28215474
H       -4.09918984       7.25118620       6.68828202
H       -6.72729345       8.61407946       5.51292781
H       -8.75774369       9.46119363       6.63751896
H       -9.41992421       8.57522531       8.85183652
H       -5.99770568       5.96078074       8.83447976
C       -8.12856414       6.69831456      10.26448226
C       -8.45035401       6.26505740      11.34298841
Br      -8.97066101       5.56451721      13.08684163
C        1.79153382      -1.79153382       1.79153382
C        3.13775777      -1.47272366       1.96282139
C        3.94443186      -2.28080448       2.76876409
C        3.40350836      -3.40736681       3.40234935
C        2.04917424      -3.71933852       3.22520323
C        1.24339371      -2.90998659       2.41902277
C        4.27891016      -4.24101577       4.24222725
N        5.53674507      -4.05094198       4.48126231
C        5.85321624      -5.10406822       5.30313479
C        7.08023405      -5.30770892       5.79879809
C        7.46912999      -6.41583835       6.66932994
C        7.35508286      -6.29417726       8.05905480
C        7.72722193      -7.35286119       8.89037470
C        8.21512254      -8.53671795       8.33720869
C        8.32728107      -8.65651451       6.95289213
C        7.95821934      -7.60370321       6.11554627
C        4.64627966      -5.95181465       5.53716013
O        4.50204017      -6.95975488       6.19616171
O        3.68481771      -5.31342743       4.81212638
H        3.56838921      -0.60157444       1.47503562
H        4.99493318      -2.02542010       2.89699892
H        1.60405911      -4.58783156       3.70556822
H        0.19380582      -3.16007258       2.28633794
H        7.87736196      -4.61300803       5.54828808
H        6.97101859      -5.37905449       8.50422764
H        7.63134061      -7.25622953       9.96888614
H        8.49922289      -9.35755925       8.99020390
H        8.04645868      -7.70914092       5.03736658
C        8.83105567      -9.87861779       6.38168751
C        9.25296690     -10.90212928       5.90330363
Br       9.93516167     -12.55706081       5.12979737
C       -0.00445707       0.01189536      -1.78238275
H       -0.66409135       0.67374010      -2.43557963
H        0.65740317      -0.63156657      -2.45157240
C       -0.90989263      -0.90692880      -0.91072765
C        0.90977584       0.90977584      -0.90977584
C       -0.00465871       1.77757030       0.00794375
H       -0.66225468       2.44313916      -0.64384735
H        0.64322798       2.43503045       0.67728295
C       -1.78241447       0.00034974      -0.00472694
H       -2.45427497      -0.65498947       0.64260836
H       -2.43311707       0.67328779      -0.65473579
C       -0.91132561       0.90220522       0.91563759
C       -0.01476271      -0.02253852       1.78660255
H       -0.67934791      -0.69751639       2.42135241
H        0.63392994       0.61504881       2.47327442
C        0.01484550      -1.77751727      -0.01636693
H        0.67870853      -2.42144646      -0.68295456
H       -0.62264859      -2.45592969       0.64226336
C        1.78714474       0.01002794       0.00389507
H        2.44202412       0.67113390       0.66197326
H        2.45385902      -0.65136977      -0.64189061
C        0.91606151      -0.90478549       0.90901405
