121
Properties=species:S:1:pos:R:3 pbc="F F F"
C        0.00000000       0.00000000       0.00000000
C        3.07877772      -1.59455876      -2.33263644
O        2.33104658      -0.94128112      -1.31362779
C        2.02512094       0.37562641      -1.53088350
C        2.80360594       1.23465566      -2.31306164
C        2.43765765       2.57693944      -2.47088359
C        1.29078731       3.07456158      -1.84290115
C        0.51555341       2.22680615      -1.04702702
C        0.88819634       0.88819634      -0.88819634
C        0.93077142       4.49032259      -2.02618205
N        1.58388843       5.38183772      -2.69902899
C        0.82404907       6.51927380      -2.53111588
C        1.17343664       7.69208624      -3.07598795
C        0.48094311       8.92756856      -2.93456552
S        0.36193293       9.97437648      -4.30659395
C       -0.50713738      11.15888305      -3.43401658
C       -0.67986617      10.78311736      -2.12897940
Br      -1.57331797      11.80921469      -0.82379979
C       -0.10586931       9.52317976      -1.82864208
C       -0.37964729       6.19657210      -1.70547047
O       -1.31389448       6.88478059      -1.35379070
O       -0.21072784       4.87532763      -1.41850462
H        3.04413206      -2.67001797      -2.13291800
H        4.12815842      -1.28545771      -2.30670598
H        2.64121893      -1.42429501      -3.32232980
H        3.71283627       0.89224073      -2.79814092
H        3.05944258       3.22896698      -3.08293262
H       -0.37535384       2.59658318      -0.54539064
H        2.06831241       7.70297026      -3.69710162
H       -0.83770282      12.06656908      -3.91938918
H       -0.12787419       9.06812981      -0.84531833
C       -2.64521645      -2.79705710       1.62541815
O       -1.53483004      -2.16651626       0.99795306
C       -1.64229812      -1.94095432      -0.34837841
C       -2.41913214      -2.72490095      -1.20729014
C       -2.46151589      -2.44532720      -2.57863758
C       -1.72233360      -1.38063889      -3.10527755
C       -0.93135279      -0.60163249      -2.25640131
C       -0.88819634      -0.88819634      -0.88819634
C       -1.78561735      -1.11049115      -4.55116757
N       -2.44260513      -1.77919181      -5.44295820
C       -2.14643074      -1.11461166      -6.61339635
C       -2.63592601      -1.50940365      -7.79618117
C       -2.36440427      -0.91704611      -9.06162680
S       -3.65231352      -0.78201546     -10.20857437
C       -2.64394082      -0.05865554     -11.38316589
C       -1.35766135       0.05357228     -10.92814152
Br       0.07252817       0.78381102     -11.91603571
C       -1.18272565      -0.44832939      -9.61489749
C       -1.26074182       0.05167585      -6.31332931
O       -0.79901984       0.90951354      -7.03517052
O       -1.07447284      -0.04182781      -4.96680377
H       -2.51510850      -2.69959562       2.70767203
H       -2.67330557      -3.86511022       1.38900910
H       -3.58799353      -2.30816706       1.35690687
H       -2.98898465      -3.57351379      -0.84071947
H       -3.07161067      -3.06989845      -3.22983306
H       -0.34450957       0.22571016      -2.64782056
H       -3.31679050      -2.35976119      -7.79183260
H       -3.04358176       0.23815179     -12.34282548
H       -0.23256615      -0.45922309      -9.09378471
C       -3.81792360       1.20074469      -1.20181289
O       -2.43069411       1.16103245      -0.88833331
C       -2.09106929       1.42989344       0.41066813
C       -2.84907566       2.24343153       1.25881604
C       -2.42490629       2.49041038       2.57016399
C       -1.23436620       1.92930167       3.04458217
C       -0.46295157       1.12757890       2.19885611
C       -0.88819634       0.88819634       0.88819634
C       -0.81282766       2.20679534       4.42765306
N       -1.41276034       2.96108616       5.29090864
C       -0.59686256       2.87901815       6.39855803
C       -0.87006699       3.54055336       7.53089049
C       -0.07802553       3.55157373       8.71347792
S       -0.87639904       3.51876578      10.24773854
C        0.59726396       3.57203201      11.11099420
C        1.66655301       3.63994322      10.25884037
Br       3.47000528       3.72829372      10.80140808
C        1.29350046       3.64732217       8.89213082
C        0.54573644       1.95981126       6.10832046
O        1.46343070       1.58278314       6.80532437
O        0.32516545       1.59374876       4.81452110
H       -3.94882650       0.74751330      -2.18930771
H       -4.17626334       2.23304047      -1.25989712
H       -4.40736623       0.61773844      -0.48585096
H       -3.76687352       2.71539093       0.92095347
H       -3.02961079       3.12861556       3.21311583
H        0.46862177       0.68821658       2.54702517
H       -1.79277781       4.11904180       7.55656468
H        0.60167494       3.55794766      12.19198272
H        2.00030882       3.71267289       8.07320988
C        2.51465746       1.61730584       2.91950378
O        1.99681311       1.02665847       1.73323860
C        1.85435690      -0.33520210       1.74207186
C        2.64368987      -1.19333720       2.51429616
C        2.45312128      -2.57915918       2.45320021
C        1.47328659      -3.12075214       1.61421131
C        0.69041115      -2.27137227       0.82760317
C        0.88819634      -0.88819634       0.88819634
C        1.29573039      -4.58160679       1.56993888
N        1.97987537      -5.47171001       2.21316976
C        1.41357289      -6.65893262       1.80193324
C        1.85449649      -7.84473545       2.24227889
C        1.36486363      -9.12373346       1.85448009
S        1.22636591     -10.35931112       3.05722632
C        0.64586986     -11.50731643       1.93257597
C        0.58367513     -10.97623331       0.67232215
Br       0.01011235     -11.91090083      -0.86131666
C        1.00769621      -9.62577298       0.61248334
C        0.28707518      -6.37382829       0.86149182
O       -0.49104688      -7.11532907       0.30039462
O        0.30287794      -5.01474697       0.76547950
H        2.35423940       2.69767640       2.85046909
H        3.59219203       1.44610429       3.00331895
H        1.98714865       1.25743805       3.80954313
H        3.42937453      -0.81335576       3.16048763
H        3.08034501      -3.22929035       3.06170682
H       -0.07139961      -2.67366316       0.16435643
H        2.65894869      -7.83270774       2.97672786
H        0.38886787     -12.50777666       2.25161092
H        1.04295846      -9.04343082      -0.30081533
