129
Properties=species:S:1:pos:R:3 pbc="F F F"
C        0.00000000       0.00000000       0.00000000
C        3.07877772      -1.59455876      -2.33263644
O        2.33104658      -0.94128112      -1.31362779
C        2.02512094       0.37562641      -1.53088350
C        2.80360594       1.23465566      -2.31306164
C        2.43765765       2.57693944      -2.47088359
C        1.29078731       3.07456158      -1.84290115
C        0.51555341       2.22680615      -1.04702702
C        0.88819634       0.88819634      -0.88819634
C        0.93077142       4.49032259      -2.02618205
N        1.58388843       5.38183772      -2.69902899
C        0.82404907       6.51927380      -2.53111588
C        1.17343664       7.69208624      -3.07598795
C        0.48094311       8.92756856      -2.93456552
S        0.36193293       9.97437648      -4.30659395
C       -0.50713738      11.15888305      -3.43401658
C       -0.67986617      10.78311736      -2.12897940
C       -0.10586931       9.52317976      -1.82864208
C       -0.37964729       6.19657210      -1.70547047
O       -1.31389448       6.88478059      -1.35379070
O       -0.21072784       4.87532763      -1.41850462
H        3.04413206      -2.67001797      -2.13291800
H        4.12815842      -1.28545771      -2.30670598
H        2.64121893      -1.42429501      -3.32232980
H        3.71283627       0.89224073      -2.79814092
H        3.05944258       3.22896698      -3.08293262
H       -0.37535384       2.59658318      -0.54539064
H        2.06831241       7.70297026      -3.69710162
H       -0.83770282      12.06656908      -3.91938918
H       -0.12787419       9.06812981      -0.84531833
C       -1.36226251      11.56682506      -1.13211557
C       -1.93376944      12.22318026      -0.29724212
Br      -2.85784780      13.28445111       1.05267764
C       -3.36169160       1.51283833      -1.96800214
O       -2.49006826       0.84785638      -1.06118136
C       -2.10674942      -0.42135769      -1.40352374
C       -2.87963473      -1.27964896      -2.19203954
C       -2.43009337      -2.57370016      -2.48168714
C       -1.20390662      -3.02381706      -1.98052635
C       -0.43234760      -2.17799257      -1.17904641
C       -0.88819634      -0.88819634      -0.88819634
C       -0.75689887      -4.38952492      -2.30085227
N       -1.39413638      -5.27821220      -2.99240656
C       -0.54225775      -6.36133248      -2.97084853
C       -0.84685118      -7.51506366      -3.57959599
C       -0.05684726      -8.69904013      -3.58718979
S        0.02971449      -9.63001693      -5.04260091
C        1.04926699     -10.80285176      -4.33217749
C        1.29654278     -10.51108615      -3.01768722
C        0.65743622      -9.32575267      -2.57763609
C        0.69602963      -6.00586161      -2.21256331
O        1.70295379      -6.64203514      -1.98559546
O        0.45410770      -4.72661775      -1.81059437
H       -3.39014165       2.57017798      -1.68706843
H       -4.38032103       1.12078558      -1.88987124
H       -2.99235880       1.45049902      -2.99739394
H       -3.84692699      -0.97552804      -2.58076288
H       -3.04889760      -3.22626416      -3.09618043
H        0.52003658      -2.51197433      -0.77468222
H       -1.78477099      -7.55110622      -4.13250708
H        1.40598241     -11.64366500      -4.91057286
H        0.72366462      -8.94353207      -1.56570650
C        2.11100252     -11.30927912      -2.13840153
C        2.79311255     -11.97776573      -1.40199977
Br       3.89602677     -13.05865204      -0.21130040
C        1.35152110       3.65189970       1.51647681
O        0.95746313       2.29288680       1.36796958
C       -0.37447893       2.02241498       1.53473694
C       -1.22586814       2.78288356       2.34257153
C       -2.57383332       2.43033292       2.48131443
C       -3.08244502       1.30937773       1.81642729
C       -2.23504930       0.53499209       1.01934519
C       -0.88819634       0.88819634       0.88819634
C       -4.50366638       0.96223823       1.98137145
N       -5.37588112       1.56984181       2.71903221
C       -6.52346492       0.83393241       2.51704143
C       -7.67755836       1.13917755       3.12477492
C       -8.90436376       0.42622244       3.01249099
S      -10.38185819       1.32284052       2.93820464
C      -11.33479909      -0.09229899       2.84326215
C      -10.55546768      -1.21670083       2.89346373
C       -9.17195007      -0.93412557       3.00812803
C       -6.24432838      -0.26703027       1.54509718
O       -6.96997341      -1.11299608       1.06769948
O       -4.91851254      -0.10889086       1.27348273
H        2.37243745       3.74587492       1.13359462
H        1.36429034       3.94225837       2.57143865
H        0.71202538       4.32086561       0.93041348
H       -0.86408773       3.64644697       2.89268322
H       -3.21880438       3.03547754       3.11706026
H       -2.61004548      -0.34360755       0.50018205
H       -7.68447946       2.02470814       3.75919668
H      -12.41086561      -0.02579607       2.76318591
H       -8.40350268      -1.69517217       3.07724344
C      -11.05639567      -2.56593735       2.84621980
C      -11.47592286      -3.69592292       2.80665301
Br     -12.15426284      -5.52301403       2.74267686
C       -1.55683183      -3.23488560       2.13880164
O       -1.02910886      -1.96762968       1.76487243
C        0.33565177      -1.85971234       1.73626674
C        1.19191503      -2.62675215       2.53265605
C        2.57835131      -2.44349976       2.46362960
C        3.12186252      -1.48651090       1.59987663
C        2.27260101      -0.70504509       0.81174049
C        0.88819634      -0.88819634       0.88819634
C        4.58324863      -1.31528428       1.54874315
N        5.46860779      -1.94292890       2.25321844
C        6.65743513      -1.39573819       1.82126543
C        7.83837635      -1.77876130       2.32437318
C        9.11444072      -1.25418975       1.97444671
S       10.45302902      -2.34251935       1.84735498
C       11.54447006      -1.08835901       1.45293319
C       10.91647183       0.12806708       1.44382584
C        9.53711339       0.04821423       1.75705337
C        6.38241500      -0.38934043       0.75063986
O        7.13220074       0.29011011       0.08258618
O        5.02289028      -0.39986241       0.66035172
H       -2.62363424      -3.23606038       1.89460595
H       -1.46267211      -3.39487401       3.21720479
H       -1.08444288      -4.04747181       1.57622478
H        0.80782924      -3.36355527       3.23183341
H        3.22677303      -3.05036435       3.09420480
H        2.67559194       0.04842841       0.13945645
H        7.82578487      -2.57649933       3.06610009
H       12.58485902      -1.30689670       1.25649973
H        8.87963087       0.90785216       1.81379524
C       11.56173159       1.38333847       1.15828501
C       12.10213664       2.43462826       0.91914457
Br      12.97592591       4.13447494       0.53247470
