142
Properties=species:S:1:pos:R:3 pbc="F F F"
C        3.98868175      -0.68465473      -3.24254047
O        3.24095060      -0.03137710      -2.22353181
C        2.93502497       1.28553044      -2.44078752
C        3.71350996       2.14455968      -3.22296566
C        3.34756167       3.48684346      -3.38078761
C        2.20069133       3.98446560      -2.75280517
C        1.42545744       3.13671017      -1.95693105
C        1.79810036       1.79810036      -1.79810036
C        1.84067544       5.40022662      -2.93608608
N        2.49379246       6.29174174      -3.60893301
C        1.73395310       7.42917782      -3.44101990
C        2.08334066       8.60199027      -3.98589198
C        1.39084713       9.83747259      -3.84446954
S        1.27183695      10.88428050      -5.21649797
C        0.40276665      12.06878707      -4.34392061
C        0.23003785      11.69302139      -3.03888342
Br      -0.66341395      12.71911872      -1.73370382
C        0.80403471      10.43308379      -2.73854610
C        0.53025674       7.10647612      -2.61537450
O       -0.40399046       7.79468461      -2.26369473
O        0.69917619       5.78523166      -2.32840864
H        3.95403609      -1.76011394      -3.04282202
H        5.03806245      -0.37555368      -3.21661000
H        3.55112295      -0.51439099      -4.23223383
H        4.62274029       1.80214475      -3.70804494
H        3.96934661       4.13887101      -3.99283664
H        0.53455018       3.50648720      -1.45529467
H        2.97821644       8.61287428      -4.60700565
H        0.07220121      12.97647311      -4.82929321
H        0.78202983       9.97803384      -1.75522235
C       -3.84227078      -3.41039369       0.70609699
O       -2.65256026      -2.89809343       0.11754837
C       -2.65670761      -2.75986517      -1.24477015
C       -3.42871783      -3.54946633      -2.10285115
C       -3.36271175      -3.36341876      -3.48906223
C       -2.51898377      -2.38789800      -4.03108034
C       -1.73258276      -1.60482644      -3.18168946
C       -1.79810036      -1.79810036      -1.79810036
C       -2.46960804      -2.21504469      -5.49233540
N       -3.11219797      -2.89996043      -6.38230881
C       -2.69549947      -2.33865261      -7.56999875
C       -3.13352558      -2.78190479      -8.75579253
C       -2.74021828      -2.29747953     -10.03509144
S       -3.93867260      -2.15909742     -11.27484540
C       -2.80864500      -1.58569521     -12.42113411
C       -1.54986296      -1.52576655     -11.88631315
Br      -0.01153687      -0.95990473     -12.81796699
C       -1.49555457      -1.94575139     -10.53435864
C       -1.75243615      -1.21420379      -7.28546742
O       -1.18660474      -0.44015280      -8.02763135
O       -1.66070630      -1.22605999      -5.92605020
H       -3.77609992      -3.24681740       1.78617315
H       -3.92891793      -4.48819157       0.53799074
H       -4.72953304      -2.88124256       0.34180982
H       -4.07854053      -4.33194415      -1.72244530
H       -3.97114721      -3.99077233      -4.13913471
H       -1.06571005      -0.84634508      -3.58427692
H       -3.87051774      -3.58402453      -8.74355409
H       -3.12375862      -1.33082741     -13.42338149
H       -0.58418835      -1.98203823      -9.94905945
C       -1.19187957       5.03695035       0.31773757
O       -0.87020056       3.74458944       0.81831531
C       -1.75550322       3.19756091       1.70827879
C       -2.57455329       3.95371277       2.55276925
C       -3.44007148       3.32143393       3.45368734
C       -3.49093316       1.92499450       3.52203444
C       -2.66474817       1.16181027       2.69254022
C       -1.79810036       1.79810036       1.79810036
C       -4.41009063       1.28756620       4.47933131
N       -5.19060483       1.87867594       5.32518645
C       -5.80700569       0.82777615       5.96936898
C       -6.70251777       1.02225833       6.94644681
C       -7.36651353       0.01052129       7.69575443
S       -9.03242610       0.23735502       8.10283430
C       -9.11623756      -1.24658501       8.94582178
C       -7.90558561      -1.88569753       8.94205458
Br      -7.56251093      -3.54399547       9.77089313
C       -6.89752508      -1.17099723       8.24913675
C       -5.32834047      -0.46304446       5.38681135
O       -5.63462550      -1.61064154       5.63040493
O       -4.42385045      -0.06131786       4.45028390
H       -0.53526800       5.23628114      -0.53480497
H       -1.00077551       5.80690674       1.07143651
H       -2.22638766       5.08217527      -0.03959715
H       -2.54782929       5.03929420       2.54580651
H       -4.06782052       3.92965642       4.10357731
H       -2.68494066       0.07561829       2.73577311
H       -6.95785940       2.05369290       7.18654406
H      -10.04182378      -1.56715105       9.40329479
H       -5.87300949      -1.51111670       8.15339324
C       -0.71150654      -3.47681662       3.78125739
O       -0.07607641      -2.38886569       3.12031604
C        1.26397275      -2.52407944       2.87329074
C        2.12298517      -3.30224377       3.65580636
C        3.48821867      -3.37377671       3.35319737
C        4.00870130      -2.66268673       2.26657407
C        3.16005507      -1.87047177       1.48857182
C        1.79810036      -1.79810036       1.79810036
C        5.44825755      -2.75626977       1.97246081
N        6.34018326      -3.41721353       2.63707043
C        7.50364210      -3.15343555       1.94707317
C        8.68453523      -3.65686207       2.32982560
C        9.94382262      -3.41815508       1.71081156
S       11.06560419      -4.72833749       1.57867374
C       12.24457167      -3.75367774       0.81722491
C       11.81009092      -2.46168732       0.69016441
Br      12.80963980      -1.06215300      -0.08238421
C       10.50918925      -2.25480243       1.21167292
C        7.19842318      -2.28300645       0.77067773
O        7.91288147      -1.84914861      -0.10764119
O        5.85721216      -2.07131153       0.88429280
H       -1.79288830      -3.32927169       3.70036078
H       -0.45673725      -3.49049277       4.84536325
H       -0.46815135      -4.43257052       3.30454663
H        1.76164204      -3.85065351       4.52063443
H        4.13965794      -3.98434764       3.97704867
H        3.54691172      -1.30514653       0.64427380
H        8.68340087      -4.32263646       3.19205903
H       13.19171989      -4.17536399       0.51088364
H       10.00497058      -1.29551414       1.21480130
C       -0.00445707       0.01189536      -1.78238275
H       -0.66409135       0.67374010      -2.43557963
H        0.65740317      -0.63156657      -2.45157240
C       -0.90989263      -0.90692880      -0.91072765
C        0.90977584       0.90977584      -0.90977584
C       -0.00465871       1.77757030       0.00794375
H       -0.66225468       2.44313916      -0.64384735
H        0.64322798       2.43503045       0.67728295
C       -1.78241447       0.00034974      -0.00472694
H       -2.45427497      -0.65498947       0.64260836
H       -2.43311707       0.67328779      -0.65473579
C       -0.91132561       0.90220522       0.91563759
C       -0.01476271      -0.02253852       1.78660255
H       -0.67934791      -0.69751639       2.42135241
H        0.63392994       0.61504881       2.47327442
C        0.01484550      -1.77751727      -0.01636693
H        0.67870853      -2.42144646      -0.68295456
H       -0.62264859      -2.45592969       0.64226336
C        1.78714474       0.01002794       0.00389507
H        2.44202412       0.67113390       0.66197326
H        2.45385902      -0.65136977      -0.64189061
C        0.91606151      -0.90478549       0.90901405
