150
Properties=species:S:1:pos:R:3 pbc="F F F"
C        1.79157979       1.79157979      -1.79157979
C        2.66579289       1.20365456      -2.70125402
C        3.47029088       2.01207525      -3.50953126
C        3.41865104       3.41072087      -3.40358572
C        2.51919564       3.98418337      -2.49586010
C        1.71074546       3.17822255      -1.68731296
C        4.22959666       4.28858887      -4.26058186
C        5.46490510       3.96977088      -4.67594301
C        6.21466834       4.87187856      -5.58886953
O        5.88748554       6.04799600      -5.73429015
C        7.41241534       4.30350776      -6.27921050
C        8.37893396       5.17897744      -6.60658264
C        9.59617537       4.73052952      -7.26413941
C       10.61982875       5.60990038      -7.62289499
C       11.77565832       5.11259266      -8.23237453
Br      13.16165721       6.30414521      -8.71930778
C       11.92259154       3.74711985      -8.48536342
C       10.90110802       2.86754439      -8.13118426
C        9.75207375       3.37358188      -7.52822295
O        8.73900261       2.45921985      -7.20004997
C        7.53770169       2.86893162      -6.63042742
O        6.63865832       2.05890735      -6.43511769
H        2.72576909       0.12286979      -2.79769499
H        4.12623598       1.53012065      -4.23278605
H        2.44233564       5.06588338      -2.40445010
H        1.02332865       3.64213132      -0.98535357
H        3.77098860       5.22955399      -4.55945762
H        5.94268818       3.04921688      -4.36736723
H        8.28883594       6.23825149      -6.37595978
H       10.52324377       6.67585193      -7.43064705
H       12.82312239       3.36248157      -8.95751370
H       10.99890800       1.80322789      -8.32527756
C       -1.79157979      -1.79157979      -1.79157979
C       -2.38333885      -1.25561736      -2.93174526
C       -3.18798096      -2.06463220      -3.73928423
C       -3.41953577      -3.40811386      -3.40530801
C       -2.80026860      -3.93442823      -2.26454229
C       -1.99230511      -3.12837200      -1.45560386
C       -4.23585833      -4.29262990      -4.25027917
C       -5.30678442      -3.86666072      -4.93717384
C       -6.05954866      -4.79494670      -5.82092107
O       -5.94214083      -6.01402310      -5.71360776
C       -7.00327191      -4.18516092      -6.80670077
C       -8.05378622      -4.94243402      -7.16827381
C       -9.04429916      -4.43956487      -8.10698027
C      -10.14594790      -5.19751086      -8.50916535
C      -11.07531349      -4.64791821      -9.39739381
Br     -12.56689980      -5.67526161      -9.94294879
C      -10.91909363      -3.34933001      -9.88665117
C       -9.81878400      -2.59170854      -9.48934412
C       -8.89662386      -3.14991864      -8.60733608
O       -7.79376075      -2.36217865      -8.24233304
C       -6.79743285      -2.84163482      -7.39799306
O       -5.80377948      -2.16209871      -7.16680517
H       -2.22155077      -0.21703977      -3.20774333
H       -3.61781798      -1.63063633      -4.64068836
H       -2.94507181      -4.97751951      -1.99007780
H       -1.52518059      -3.55389734      -0.57173562
H       -3.92226353      -5.33370249      -4.30403419
H       -5.64436181      -2.84049388      -4.87441660
H       -8.20356499      -5.93953194      -6.75995027
H      -10.28462655      -6.20937292      -8.13574328
H      -11.64414538      -2.92335533     -10.57561695
H       -9.68130004      -1.58158789      -9.86452552
C       -1.79157979       1.79157979       1.79157979
C       -1.82533791       3.16669474       1.57866882
C       -2.63494054       3.97214505       2.38481179
C       -3.40286982       3.41232530       3.41776252
C       -3.37025838       2.02454484       3.60443589
C       -2.56321220       1.21522017       2.79784860
C       -4.28734986       4.22859837       4.26281917
C       -3.99848514       5.48804072       4.62409313
C       -4.95855138       6.28450226       5.43236279
O       -5.86992845       5.74401320       6.05583004
C       -4.73637998       7.76118855       5.49756507
C       -5.17880991       8.37879898       6.60688514
C       -4.99719814       9.81103524       6.78261092
C       -5.44627231      10.48799057       7.91836124
C       -5.22049605      11.86259809       8.03753138
Br      -5.82994237      12.77958315       9.57558469
C       -4.54910933      12.56876939       7.03719608
C       -4.10256795      11.89618950       5.90107922
C       -4.33608218      10.52757817       5.79021823
O       -3.88529250       9.88801589       4.62496405
C       -4.10339602       8.53233264       4.40133207
O       -3.77474585       8.02114135       3.33679615
H       -1.23606218       3.62268892       0.78758277
H       -2.66601763       5.04144933       2.18167571
H       -3.96931849       1.55881289       4.38453773
H       -2.54743347       0.14131021       2.96206986
H       -5.21537330       3.75956295       4.58506397
H       -3.06913008       5.95873261       4.33140960
H       -5.66652514       7.82818537       7.40833669
H       -5.96830096       9.95315679       8.70828500
H       -4.37288448      13.63722283       7.13301035
H       -3.58246690      12.43247400       5.11247254
C        1.79157979      -1.79157979       1.79157979
C        1.93645155      -3.14296651       1.49128341
C        2.74598899      -3.94819170       2.29771670
C        3.40255525      -3.41333385       3.41706854
C        3.25966130      -2.04741036       3.69216745
C        2.45242374      -1.23812882       2.88572841
C        4.28481550      -4.22713956       4.26681233
C        4.06249777      -5.52528584       4.52283538
C        5.02101747      -6.31178277       5.34261620
O        5.84875528      -5.75774644       6.06326997
C        4.89998251      -7.80082035       5.29433074
C        5.31077643      -8.46475718       6.38896043
C        5.21967283      -9.91468962       6.45648184
C        5.63953075     -10.63912309       7.57397027
C        5.50412870     -12.03061389       7.58588292
Br       6.07402073     -13.01180761       9.09928187
C        4.95184617     -12.70707024       6.49615839
C        4.53484270     -11.98679859       5.37819537
C        4.67782187     -10.60135253       5.37470417
O        4.26084762      -9.91216417       4.22526064
C        4.39684627      -8.53263014       4.10758433
O        4.10386608      -7.97026911       3.05854816
H        1.43439561      -3.57979216       0.63214610
H        2.86592685      -4.99606965       2.02714617
H        3.77149235      -1.59947019       4.54170657
H        2.34995562      -0.18190576       3.11895216
H        5.15405673      -3.72182723       4.68411626
H        3.19009695      -6.03442471       4.13475064
H        5.70437442      -7.94119251       7.25748027
H        6.06915783     -10.12818426       8.43240066
H        4.84566044     -13.78892036       6.50853686
H        4.10714981     -12.49914722       4.52111642
C       -0.00445707       0.01189536      -1.78238275
H       -0.66409135       0.67374010      -2.43557963
H        0.65740317      -0.63156657      -2.45157240
C       -0.90989263      -0.90692880      -0.91072765
C        0.90977584       0.90977584      -0.90977584
C       -0.00465871       1.77757030       0.00794375
H       -0.66225468       2.44313916      -0.64384735
H        0.64322798       2.43503045       0.67728295
C       -1.78241447       0.00034974      -0.00472694
H       -2.45427497      -0.65498947       0.64260836
H       -2.43311707       0.67328779      -0.65473579
C       -0.91132561       0.90220522       0.91563759
C       -0.01476271      -0.02253852       1.78660255
H       -0.67934791      -0.69751639       2.42135241
H        0.63392994       0.61504881       2.47327442
C        0.01484550      -1.77751727      -0.01636693
H        0.67870853      -2.42144646      -0.68295456
H       -0.62264859      -2.45592969       0.64226336
C        1.78714474       0.01002794       0.00389507
H        2.44202412       0.67113390       0.66197326
H        2.45385902      -0.65136977      -0.64189061
C        0.91606151      -0.90478549       0.90901405
