129
Properties=species:S:1:pos:R:3 pbc="F F F"
C        0.00000000       0.00000000       0.00000000
C        0.88167576       0.88167576      -0.88167576
C        1.75588886       0.29375054      -1.79135000
C        2.56038686       1.10217122      -2.59962723
C        2.50874702       2.50081685      -2.49368170
C        1.60929161       3.07427935      -1.58595607
C        0.80084144       2.26831852      -0.77740893
C        3.31969264       3.37868485      -3.35067784
C        4.55500108       3.05986686      -3.76603898
C        5.30476432       3.96197453      -4.67896551
O        4.97758151       5.13809198      -4.82438613
C        6.50251132       3.39360373      -5.36930647
C        7.46902993       4.26907342      -5.69667862
C        8.68627134       3.82062549      -6.35423538
C        9.70992473       4.69999635      -6.71299096
C       10.86575430       4.20268863      -7.32247051
Br      12.25175319       5.39424119      -7.80940375
C       11.01268751       2.83721583      -7.57545939
C        9.99120399       1.95764036      -7.22128023
C        8.84216973       2.46367785      -6.61831893
O        7.82909859       1.54931583      -6.29014595
C        6.62779766       1.95902760      -5.72052340
O        5.72875430       1.14900333      -5.52521366
H        1.81586506      -0.78703423      -1.88779096
H        3.21633195       0.62021662      -3.32288202
H        1.53243162       4.15597935      -1.49454608
H        0.11342463       2.73222729      -0.07544955
H        2.86108458       4.31964997      -3.64955359
H        5.03278415       2.13931286      -3.45746321
H        7.37893191       5.32834746      -5.46605575
H        9.61333975       5.76594790      -6.52074302
H       11.91321836       2.45257755      -8.04760968
H       10.08900398       0.89332386      -7.41537354
C       -0.88167576      -0.88167576      -0.88167576
C       -0.77913838      -0.79477082      -2.26708020
C       -1.58496556      -1.60440423      -3.07281553
C       -2.50853464      -2.49346500      -2.50124592
C       -2.58388123      -2.58033052      -1.10531529
C       -1.77710621      -1.77349253      -0.29597015
C       -3.34829727      -3.37986317      -3.32089488
C       -3.83124585      -3.02759104      -4.52207004
C       -4.62716768      -3.98761321      -5.33092348
O       -5.13456793      -4.98455948      -4.82093220
C       -4.82848566      -3.66129697      -6.77563890
C       -5.94793707      -4.14470655      -7.34213834
C       -6.25245064      -3.87100648      -8.73767510
C       -7.40248817      -4.35871190      -9.36171197
C       -7.64942928      -4.04085195     -10.70063221
Br      -9.20675238      -4.70258739     -11.54605836
C       -6.76290973      -3.23940827     -11.42304473
C       -5.61267296      -2.75386208     -10.80358955
C       -5.37389613      -3.07963706      -9.47063332
O       -4.19769898      -2.58502650      -8.88583488
C       -3.84904762      -2.88536287      -7.57293816
O       -2.77420572      -2.51068577      -7.11807980
H       -0.07412115      -0.11068849      -2.73181215
H       -1.46752526      -1.53857338      -4.15333196
H       -3.27645711      -3.27397646      -0.63252347
H       -1.85434848      -1.85171532       0.78496233
H       -3.56087071      -4.36354585      -2.90587158
H       -3.64828691      -2.04485974      -4.93641357
H       -6.66319735      -4.73579130      -6.77434647
H       -8.10499738      -4.98178029      -8.81325301
H       -6.95807321      -2.99187176     -12.46346062
H       -4.91144587      -2.13270754     -11.35354797
C       -0.88167576       0.88167576       0.88167576
C       -1.56669252       1.95495993       0.31933694
C       -2.37549224       2.75951720       1.12717587
C       -2.49277923       2.50749004       2.50297629
C       -1.81079879       1.41170018       3.04702806
C       -1.00263489       0.60290548       2.24102852
C       -3.35907062       3.31662523       3.37335948
C       -3.55340312       4.63218354       3.19532026
C       -4.48628152       5.38675891       4.07266394
O       -4.85214080       4.93286258       5.15505624
C       -4.91665474       6.74069609       3.60807070
C       -5.24332049       7.62138912       4.57007235
C       -5.65737266       8.97351399       4.23024557
C       -6.00780259       9.91444810       5.20066135
C       -6.37542367      11.20554094       4.80994882
Br      -6.85119871      12.47960183       6.12459759
C       -6.39459460      11.56901389       3.46175424
C       -6.04832760      10.63093267       2.49086432
C       -5.68752676       9.34633650       2.89030325
O       -5.36028573       8.42508322       1.88319141
C       -5.02430311       7.10716568       2.17587987
O       -4.82805121       6.30410809       1.27081198
H       -1.48767341       2.17159886      -0.74265048
H       -2.92308631       3.57646992       0.65987437
H       -1.89712087       1.17917642       4.10665976
H       -0.47729950      -0.23921587       2.68301784
H       -3.85659924       2.78866965       4.18501925
H       -3.04696182       5.17472829       2.40787011
H       -5.19163169       7.35755140       5.62415204
H       -5.99557567       9.64925046       6.25520455
H       -6.67879658      12.57414240       3.16046661
H       -6.06245116      10.89738623       1.43786400
C        0.88167576      -0.88167576       0.88167576
C        0.46751793      -2.17131906       1.20215240
C        1.27691505      -2.97815144       2.00711883
C        2.49607813      -2.49741803       2.50974940
C        2.90471401      -1.20390738       2.16090565
C        2.09844371      -0.39471734       1.35340784
C        3.38374400      -3.33178768       3.33352365
C        2.93028399      -4.24520396       4.20541896
C        3.87641588      -5.10021704       4.96907145
O        5.06342342      -4.79906945       5.07756675
C        3.31305733      -6.30994695       5.64241724
C        3.96053953      -6.73140999       6.74283245
C        3.48660947      -7.88773060       7.48679215
C        4.13425014      -8.35738064       8.63128126
C        3.61504704      -9.46086435       9.31500205
Br       4.49318580     -10.09757677      10.86463557
C        2.45514758     -10.09926707       8.87094809
C        1.80845913      -9.63455256       7.72711290
C        2.33607641      -8.53710965       7.05098045
O        1.66589630      -8.10781053       5.89485353
C        2.13390131      -7.04587276       5.12757459
O        1.57613644      -6.74991246       4.07692240
H       -0.47441752      -2.56324592       0.82779339
H        0.94498066      -3.99275372       2.22169622
H        3.85377007      -0.80993206       2.51925492
H        2.43050574       0.60790889       1.09850461
H        4.45306501      -3.18004337       3.19717975
H        1.87048674      -4.39009461       4.36897887
H        4.84127190      -6.21446778       7.11759544
H        5.03691868      -7.87043075       8.99268124
H        2.05213169     -10.95586210       9.40541180
H        0.90761423     -10.12316831       7.36691884
