173
Properties=species:S:1:pos:R:3 pbc="F F F"
C        0.00000000       0.00000000       0.00000000
C        7.02379373      -1.96219900      -6.46857544
C        6.83044237      -0.50564083      -6.16734492
C        5.55786088       0.06862759      -6.26122281
C        5.37361805       1.43181778      -6.01039851
C        6.45987875       2.24928991      -5.66579905
C        7.73514651       1.67344683      -5.59800425
C        7.91850474       0.30849318      -5.84044453
N        6.27867265       3.65303081      -5.42431875
C        5.28938198       4.14451009      -4.57163628
C        4.57334320       3.17189899      -3.69229641
C        3.28630628       3.38072843      -3.37489191
C        2.49847118       2.49946734      -2.50408475
C        1.51927068       3.06848130      -1.67730391
C        0.71600621       2.26395210      -0.86346114
C        0.88162124       0.88162124      -0.88162124
C        1.84129483       0.29771665      -1.70505505
C        2.64419283       1.10505945      -2.51724799
N        5.02072063       5.40899300      -4.43373436
C        5.74493986       6.34113917      -5.17453051
C        5.42001649       7.69478692      -5.05359074
C        6.12340789       8.66373402      -5.77453367
C        7.16084369       8.27575460      -6.62014171
Br       8.10578881       9.58197846      -7.60548296
C        7.50192131       6.93211928      -6.74613327
C        6.78874505       5.97262983      -6.01510525
C        7.10014430       4.53812057      -6.13897053
O        8.02575763       4.22219352      -6.88604074
H        6.30482949      -2.56562137      -5.90539693
H        8.02754368      -2.29858562      -6.18894300
H        6.88732038      -2.14525588      -7.53899285
H        4.70348811      -0.54092085      -6.54907822
H        4.37806665       1.85129285      -6.13388175
H        8.60449065       2.27865160      -5.34623992
H        8.92176940      -0.10748475      -5.77955601
H        5.14283755       2.33925839      -3.29658037
H        2.76721062       4.26069823      -3.75134058
H        1.37730967       4.14722978      -1.65362059
H       -0.03334157       2.72598796      -0.22571007
H        1.96870085      -0.78107452      -1.72910353
H        3.37349101       0.62707509      -3.16711037
H        4.61118431       7.99325325      -4.39084330
H        5.85314854       9.71124877      -5.66852499
H        8.30745511       6.62498606      -7.40951007
C       -6.60052823      -6.89814443       1.96850248
C       -6.27511582      -6.73094168       0.51391104
C       -6.34160045      -5.46581140      -0.08029944
C       -6.06808865      -5.30558550      -1.44216019
C       -5.72774514      -6.40883596      -2.23838660
C       -5.68740102      -7.67624582      -1.64295075
C       -5.95254333      -7.83568405      -0.27921507
N       -5.46302562      -6.25211282      -3.64088377
C       -4.58858926      -5.28286557      -4.13407352
C       -3.71304918      -4.56540237      -3.15908705
C       -3.37348731      -3.28641254      -3.38202678
C       -2.50406891      -2.49840366      -2.49955071
C       -1.65454126      -1.54001881      -3.07049582
C       -0.84071936      -0.73689070      -2.26580939
C       -0.88162124      -0.88162124      -0.88162124
C       -1.72773031      -1.82031084      -0.29602538
C       -2.53985600      -2.62313866      -1.10350561
N       -4.42816635      -5.03511326      -5.40016838
C       -5.16590843      -5.76218517      -6.33251594
C       -5.02029815      -5.45926189      -7.68883411
C       -5.73734134      -6.16634972      -8.65798452
C       -6.60390324      -7.18537641      -8.26746035
Br      -7.58393542      -8.13510806      -9.57420675
C       -6.75465783      -7.50452538      -6.92099065
C       -6.02724732      -6.78794359      -5.96128922
C       -6.17676741      -7.07609882      -4.52436917
O       -6.94209098      -7.98584591      -4.20605499
H       -6.03562059      -6.17861502       2.56963057
H       -6.34083703      -7.90076895       2.32370492
H       -7.67136537      -6.74327146       2.13357948
H       -6.62561453      -4.59832650       0.51229555
H       -6.17056786      -4.31468569      -1.87798770
H       -5.43975676      -8.55810465      -2.23152076
H       -5.91270870      -8.83342920       0.15229723
H       -3.33811443      -5.12818035      -2.31238152
H       -3.72921494      -2.77500959      -4.27502490
H       -1.61292335      -1.41449804      -4.15073866
H       -0.18517197      -0.00394232      -2.72924217
H       -1.76949722      -1.93127381       0.78404117
H       -3.20744752      -3.33562667      -0.62460229
H       -4.34127387      -4.66477339      -7.98923360
H       -5.61196400      -5.91330136      -9.70765692
H       -7.43438939      -8.29557794      -6.61198392
C        1.96948216       6.86645597       6.63319636
C        0.52127955       6.49259982       6.52082619
C       -0.11233840       6.50214363       5.27322925
C       -1.46929023       6.18313379       5.16341031
C       -2.22121261       5.85332612       6.30042897
C       -1.58710953       5.87000572       7.54948234
C       -0.22804959       6.18068567       7.65870719
N       -3.61892985       5.54199110       6.19510126
C       -4.11369343       4.62365110       5.26818382
C       -3.13406295       3.75597305       4.54750259
C       -3.38462770       3.37054198       3.28675695
C       -2.49972463       2.50402929       2.49826935
C       -3.07261546       1.60858082       1.58385960
C       -2.26760018       0.79481552       0.78100376
C       -0.88162124       0.88162124       0.88162124
C       -0.29457773       1.77348492       1.77600389
C       -1.10234083       2.58546261       2.57869683
N       -5.38108342       4.41779119       5.06457338
C       -6.31357041       5.14937316       5.79766597
C       -7.67321064       4.95390492       5.54127860
C       -8.64242580       5.66308728       6.25616251
C       -8.24849805       6.57202170       7.23622025
Br      -9.55584965       7.54132937       8.19607121
C       -6.89836993       6.77283559       7.50896834
C       -5.93855922       6.05271917       6.78520174
C       -4.49895501       6.25405235       7.02422804
O       -4.17731752       7.05630344       7.90037093
H        2.56594410       6.29785772       5.91269142
H        2.36241615       6.64861563       7.63170158
H        2.09669108       7.93646351       6.44128493
H        0.44494476       6.77685520       4.37973504
H       -1.93756752       6.24185432       4.18381942
H       -2.14106414       5.63219485       8.45612318
H        0.23418665       6.18463384       8.64339348
H       -2.25969976       3.42413616       5.09484038
H       -4.30310812       3.68338940       2.79275192
H       -4.15433297       1.53075952       1.49306756
H       -2.73231549       0.10335187       0.08268911
H        0.78652288       1.85100015       1.85225260
H       -0.62315432       3.28879078       3.25573138
H       -7.97616233       4.24196994       4.77714860
H       -9.69483493       5.49856109       6.03952627
H       -6.58694376       7.48562894       8.26937854
C        1.98854363       0.00154187       9.54316841
C        2.78820755      -0.97321692       8.73072199
C        2.14166093      -1.87152737       7.87452298
C        2.87746232      -2.80292717       7.13544485
C        4.27480066      -2.85805142       7.24211563
C        4.91392196      -1.97283104       8.11984458
C        4.17917402      -1.03553754       8.85273089
N        5.03335716      -3.82413264       6.49853241
C        4.85907922      -4.01871254       5.12773660
C        4.04740701      -3.01648712       4.37364447
C        3.31220042      -3.40816496       3.32156125
C        2.49721688      -2.50247302       2.50233337
C        2.36701992      -2.76663152       1.13140445
C        1.56647460      -1.95628278       0.32066208
C        0.88162124      -0.88162124       0.88162124
C        0.98970070      -0.61078688       2.24357895
C        1.79214459      -1.42239629       3.05195939
N        5.43774405      -4.96959462       4.45610933
C        6.27725636      -5.85853829       5.12481489
C        6.86017716      -6.90414599       4.40407100
C        7.71199785      -7.81581528       5.03386245
C        7.98458196      -7.67861609       6.39354195
Br       9.12606728      -8.91650450       7.25067845
C        7.41787447      -6.63813606       7.12416333
C        6.56753750      -5.73086141       6.47808122
C        5.92663212      -4.63104911       7.21955417
O        6.18979903      -4.52689923       8.41729363
H        1.28579594       0.54388269       8.90269180
H        2.63329244       0.74247801      10.02708662
H        1.43103061      -0.52785454      10.32217220
H        1.05652468      -1.86285991       7.79226090
H        2.33803916      -3.51251897       6.51268313
H        5.99592226      -1.99432230       8.23913761
H        4.70594653      -0.36237354       9.52552060
H        4.11803994      -1.97975189       4.68088448
H        3.31292723      -4.45256702       3.01375518
H        2.89508672      -3.60391011       0.67916322
H        1.48392188      -2.17533964      -0.74090506
H        0.45063274       0.22156000       2.68765712
H        1.84652932      -1.20501890       4.11612826
H        6.64645821      -7.00609788       3.34272477
H        8.15310561      -8.62388803       4.45592866
H        7.62389630      -6.53116131       8.18689364
