169
Properties=species:S:1:pos:R:3 pbc="F F F"
C        0.00000000       0.00000000       0.00000000
C        0.88171295       0.88171295      -0.88171295
C        0.35315140       1.45747290      -2.03460471
C        1.15915067       2.27048462      -2.83674685
C        2.49898139       2.51122197      -2.49149498
C        3.01967800       1.90290590      -1.33999049
C        2.21171687       1.09916463      -0.53046918
N        3.33078316       3.35008397      -3.30397985
C        2.94410969       4.63196329      -3.69614492
C        1.72568895       5.21686660      -3.06172991
C        0.90296060       6.00394344      -3.77251667
C       -0.29515734       6.64537834      -3.21278189
C       -0.67657899       7.90408794      -3.69890452
C       -1.82015005       8.54207918      -3.21040655
C       -2.60236329       7.92342691      -2.23741289
C       -2.23880879       6.66553594      -1.76254395
C       -1.09801848       6.02308032      -2.24724500
N        3.63423114       5.37970323      -4.50385900
C        4.84205175       4.89376617      -5.00815053
C        5.58371126       5.70243323      -5.87328222
C        6.80797966       5.26384812      -6.38569058
C        7.30023382       4.00760191      -6.03649066
C        6.57005289       3.19464870      -5.17039808
C        5.34712913       3.64779099      -4.65675059
C        4.55228392       2.81369513      -3.73864105
O        4.99195165       1.70225565      -3.44492014
H       -0.67716445       1.27123224      -2.32306353
H        0.73839012       2.68152422      -3.75124502
H        4.05675119       2.06106042      -1.05084148
H        2.63358098       0.64724929       0.36494258
H        1.57516111       5.02008507      -2.00672385
H        1.12187714       6.22329790      -4.81509591
H       -0.07800680       8.40553011      -4.45600269
H       -2.09880709       9.52230669      -3.59009784
H       -3.49006510       8.42520033      -1.86073511
H       -0.84563431       5.03433623      -1.87338808
H        5.20478906       6.68457318      -6.14329933
H        7.37599295       5.90540619      -7.05541645
H        8.25074233       3.66240551      -6.43600497
H        6.95209982       2.21357974      -4.89725885
C       -3.04990995       6.01816415      -0.76423304
C       -3.72920716       5.47599028       0.07185235
Br      -4.82757331       4.59934098       1.42373172
C       -0.88171295      -0.88171295      -0.88171295
C       -0.52071366      -1.11855941      -2.20595594
C       -1.32465114      -1.93197306      -3.00975793
C       -2.49522039      -2.51205598      -2.49442198
C       -2.85468337      -2.24199889      -1.16589214
C       -2.04564517      -1.43836578      -0.35733974
N       -3.32162718      -3.35403466      -3.30918514
C       -2.80924891      -4.43341465      -4.02955434
C       -1.39953974      -4.84475352      -3.75999220
C       -0.62373243      -5.29902783      -4.75666045
C        0.76034566      -5.75591770      -4.56743084
C        1.24340050      -6.79765837      -5.37215560
C        2.55915204      -7.25045307      -5.24103465
C        3.41113644      -6.65889104      -4.31072192
C        2.94296948      -5.61211670      -3.52012388
C        1.62992137      -5.15510242      -3.64712579
N       -3.51453520      -5.15822417      -4.84503400
C       -4.86868592      -4.86254435      -5.01273819
C       -5.62512485      -5.64687846      -5.88742340
C       -6.98850110      -5.39879879      -6.07021848
C       -7.60704246      -4.35919999      -5.37808395
C       -6.86217707      -3.57338580      -4.49953680
C       -5.49726804      -3.83595691      -4.31844577
C       -4.68281056      -3.02506555      -3.39674399
O       -5.23731972      -2.10351860      -2.79828912
H        0.37430712      -0.66737420      -2.62406424
H       -1.04488779      -2.07565436      -4.05061721
H       -3.76098260      -2.66777738      -0.73989312
H       -2.33775627      -1.25230015       0.67416873
H       -1.06262054      -4.80872948      -2.73062002
H       -1.01971085      -5.37362832      -5.76693178
H        0.59366733      -7.27506483      -6.10212850
H        2.91743852      -8.06547013      -5.86556583
H        4.43309942      -7.01620501      -4.21276475
H        1.29412291      -4.32522827      -3.03098463
H       -5.14659470      -6.46144177      -6.42462509
H       -7.56546541      -6.01959041      -6.75175978
H       -8.66673843      -4.16179788      -5.52061650
H       -7.34284937      -2.76107198      -3.95901706
C        3.82310347      -4.99120108      -2.56438963
C        4.56021569      -4.47118424      -1.76396220
Br       5.75206380      -3.63036100      -0.46973875
C       -0.88171295       0.88171295       0.88171295
C       -2.23281829       1.03330424       0.57910648
C       -3.04044486       1.83457951       1.39135776
C       -2.50128743       2.49026656       2.51014436
C       -1.13351702       2.34475037       2.78430700
C       -0.32707483       1.53441992       1.97985593
N       -3.32378127       3.30770977       3.35335594
C       -4.52764148       2.85259592       3.89198051
C       -4.84541965       1.39984617       3.75901963
C       -6.11193296       0.99769177       3.56979598
C       -6.51112227      -0.41293021       3.46481083
C       -7.76546617      -0.79818156       3.95912886
C       -8.19495935      -2.12465246       3.86202879
C       -7.37919787      -3.07977493       3.25905357
C       -6.13926686      -2.70046551       2.75046974
C       -5.70522469      -1.37684958       2.84393174
N       -5.33701526       3.59678416       4.58399395
C       -4.99203402       4.92825483       4.82367961
C       -5.86295764       5.72452738       5.57194168
C       -5.54774329       7.05701979       5.85275529
C       -4.35531165       7.60525371       5.38376104
C       -3.47723535       6.81794514       4.63991917
C       -3.80018234       5.48081073       4.37067765
C       -2.89349017       4.62228217       3.58884776
O       -1.84793196       5.11974264       3.17145284
H       -2.66301748       0.54374520      -0.28963137
H       -4.08425351       1.96890018       1.11800568
H       -0.68311412       2.84798140       3.63755758
H        0.72899441       1.42630476       2.21857733
H       -4.02460649       0.70190180       3.87546175
H       -6.91531031       1.72892815       3.51603250
H       -8.41604180      -0.06878567       4.43626987
H       -9.16649084      -2.41093787       4.25804447
H       -7.71844451      -4.11004940       3.18747524
H       -4.74124018      -1.10274567       2.42359548
H       -6.79112323       5.29825749       5.94328084
H       -6.23365488       7.66394111       6.43921960
H       -4.10886445       8.64238755       5.59790081
H       -2.54648608       7.24413379       4.27231853
C       -5.29725476      -3.68231013       2.11754261
C       -4.59206962      -4.50460500       1.58746613
Br      -3.45184490      -5.83418625       0.73037730
C        0.88171295      -0.88171295       0.88171295
C        2.06956195      -1.40211753       0.37354953
C        2.87948029      -2.20281551       1.18408633
C        2.50546040      -2.48910751       2.50713044
C        1.29386825      -1.97594122       2.99276491
C        0.48863092      -1.16541621       2.18730355
N        3.33379597      -3.30286965       3.34818136
C        4.69443016      -3.05116213       3.52662561
C        5.24066910      -1.76648042       2.99713595
C        6.47933203      -1.71765663       2.48243206
C        7.10180600      -0.48704445       1.97415244
C        8.48690130      -0.32221599       2.11729619
C        9.12420956       0.82252553       1.63065165
C        8.38498931       1.81136185       0.98484905
C        7.01139115       1.64610027       0.82398021
C        6.36942844       0.50446522       1.30734362
N        5.48844742      -3.82059122       4.20875474
C        4.96438349      -4.96307201       4.81651296
C        5.82048995      -5.78603067       5.55290610
C        5.33430790      -6.92872995       6.19448051
C        3.98338393      -7.25873032       6.10221215
C        3.11980713      -6.44179333       5.37349921
C        3.61696727      -5.29430506       4.74039839
C        2.73061969      -4.40991359       3.96408681
O        1.54146841      -4.71640290       3.88125614
H        2.36728910      -1.20120032      -0.65135810
H        3.78457650      -2.62874327       0.75783959
H        0.97064454      -2.18805361       4.00995494
H       -0.44127566      -0.76812399       2.58903936
H        4.61769593      -0.88556769       3.09870642
H        7.09417436      -2.61433955       2.45175705
H        9.08166492      -1.08071759       2.62114349
H       10.19782527       0.94113878       1.75691095
H        8.88628756       2.69987797       0.60946076
H        5.29957339       0.39108478       1.15360138
H        6.87341703      -5.52841975       5.63082479
H        6.01169840      -7.55815097       6.76696624
H        3.60287243      -8.14871766       6.59756272
H        2.06531442      -6.69801050       5.29961348
C        6.24513640       2.66093681       0.14828766
C        5.60339804       3.51086242      -0.41760486
Br       4.56576139       4.88512025      -1.33260519
