161
Properties=species:S:1:pos:R:3 pbc="F F F"
C        0.00000000       0.00000000       0.00000000
C        0.88171295       0.88171295      -0.88171295
C        0.35315140       1.45747290      -2.03460471
C        1.15915067       2.27048462      -2.83674685
C        2.49898139       2.51122197      -2.49149498
C        3.01967800       1.90290590      -1.33999049
C        2.21171687       1.09916463      -0.53046918
N        3.33078316       3.35008397      -3.30397985
C        2.94410969       4.63196329      -3.69614492
C        1.72568895       5.21686660      -3.06172991
C        0.90296060       6.00394344      -3.77251667
C       -0.29515734       6.64537834      -3.21278189
C       -0.67657899       7.90408794      -3.69890452
C       -1.82015005       8.54207918      -3.21040655
C       -2.60236329       7.92342691      -2.23741289
C       -2.23880879       6.66553594      -1.76254395
Br      -3.30410353       5.81528223      -0.45136919
C       -1.09801848       6.02308032      -2.24724500
N        3.63423114       5.37970323      -4.50385900
C        4.84205175       4.89376617      -5.00815053
C        5.58371126       5.70243323      -5.87328222
C        6.80797966       5.26384812      -6.38569058
C        7.30023382       4.00760191      -6.03649066
C        6.57005289       3.19464870      -5.17039808
C        5.34712913       3.64779099      -4.65675059
C        4.55228392       2.81369513      -3.73864105
O        4.99195165       1.70225565      -3.44492014
H       -0.67716445       1.27123224      -2.32306353
H        0.73839012       2.68152422      -3.75124502
H        4.05675119       2.06106042      -1.05084148
H        2.63358098       0.64724929       0.36494258
H        1.57516111       5.02008507      -2.00672385
H        1.12187714       6.22329790      -4.81509591
H       -0.07800680       8.40553011      -4.45600269
H       -2.09880709       9.52230669      -3.59009784
H       -3.49006510       8.42520033      -1.86073511
H       -0.84563431       5.03433623      -1.87338808
H        5.20478906       6.68457318      -6.14329933
H        7.37599295       5.90540619      -7.05541645
H        8.25074233       3.66240551      -6.43600497
H        6.95209982       2.21357974      -4.89725885
C       -0.88171295      -0.88171295      -0.88171295
C       -0.32186919      -1.56428752      -1.95907230
C       -1.12857251      -2.37701479      -2.76079485
C       -2.50025715      -2.51067552      -2.49076568
C       -3.05002583      -1.79625967      -1.41628888
C       -2.24244112      -0.99239763      -0.60651194
N       -3.33372630      -3.34822883      -3.30289185
C       -3.00920327      -4.67480436      -3.58821028
C       -1.87396053      -5.29094175      -2.83938318
C       -1.06262036      -6.17294592      -3.44385443
C        0.05329709      -6.84906711      -2.76723287
C        0.37996016      -8.15846602      -3.14790760
C        1.44620849      -8.83248863      -2.54605554
C        2.20573888      -8.20052373      -1.56369166
C        1.89751387      -6.89379517      -1.19298980
Br       2.93329372      -6.02636648       0.13052487
C        0.83409469      -6.21524783      -1.79115370
N       -3.69583790      -5.43009541      -4.39186006
C       -4.83516128      -4.90455463      -5.00425254
C       -5.57359073      -5.72112347      -5.86471251
C       -6.73192634      -5.24225515      -6.48333688
C       -7.16062335      -3.93749546      -6.24620758
C       -6.43340083      -3.11588163      -5.38581721
C       -5.27744551      -3.60908140      -4.76514381
C       -4.48765601      -2.76698287      -3.84998121
O       -4.87012992      -1.61337255      -3.65562497
H        0.73444214      -1.46191335      -2.18966010
H       -0.67997963      -2.87306345      -3.61811628
H       -4.11124907      -1.87019834      -1.18720569
H       -2.68824006      -0.45683778       0.22919015
H       -1.77654362      -5.03444025      -1.79098617
H       -1.23041044      -6.44685654      -4.48300398
H       -0.20233268      -8.67080992      -3.91038340
H        1.68236747      -9.85112359      -2.84484132
H        3.03314261      -8.73040664      -1.09860632
H        0.62502654      -5.19014967      -1.49696687
H       -5.24451902      -6.74062554      -6.04751700
H       -7.29849401      -5.89024667      -7.14807491
H       -8.05952741      -3.56115465      -6.72847075
H       -6.76584920      -2.09704524      -5.20004397
C       -0.88171295       0.88171295       0.88171295
C       -2.04829287       1.43631845       0.36061769
C       -2.85840829       2.23700783       1.17096603
C       -2.50582162       2.48908078       2.50679595
C       -1.31490357       1.94167663       3.00599419
C       -0.50976745       1.13115826       2.20042498
N       -3.33470829       3.30259451       3.34754418
C       -4.70346459       3.07519505       3.49355826
C       -5.26437147       1.81278097       2.92713303
C       -6.49299830       1.79955876       2.38686365
C       -7.12946039       0.59232402       1.84121848
C       -8.52020921       0.45297364       1.95323062
C       -9.17022335      -0.66855550       1.43066783
C       -8.43790355      -1.65915864       0.77973160
C       -7.05827668      -1.51878603       0.64978044
Br      -6.06084218      -2.85391151      -0.24438279
C       -6.40360516      -0.40039146       1.16909314
N       -5.49568973       3.84687247       4.17523117
C       -4.96139121       4.96603065       4.81654660
C       -5.81571704       5.79139768       5.55231199
C       -5.31997085       6.91087108       6.22667644
C       -3.96111371       7.21500569       6.16820700
C       -3.09935690       6.39535173       5.44039104
C       -3.60634547       5.27114589       4.77417935
C       -2.72220496       4.38455239       3.99786275
O       -1.52571740       4.66829905       3.94511099
H       -2.32899599       1.26206388      -0.67392856
H       -3.74591309       2.68976448       0.73548179
H       -1.00833280       2.12675572       4.03356457
H        0.40361080       0.70700932       2.61248917
H       -4.66134859       0.91747932       3.02314212
H       -7.08902538       2.70903994       2.36220563
H       -9.10984140       1.21322711       2.46045749
H      -10.24835064      -0.76773009       1.53297689
H       -8.94910863      -2.52956911       0.37633083
H       -5.32878065      -0.30582098       1.03913033
H       -6.87495798       5.55382692       5.60387666
H       -5.99617952       7.54241028       6.79822580
H       -3.57306542       8.08695262       6.68913476
H       -2.03866119       6.63141667       5.39286055
C        0.88171295      -0.88171295       0.88171295
C        2.18683498      -1.16918002       0.48921401
C        2.99534155      -1.97013881       1.30090178
C        2.50288428      -2.48965298       2.50916109
C        1.17834772      -2.20902412       2.87520255
C        0.37237374      -1.39856496       2.07041199
N        3.32750862      -3.30552530       3.35181306
C        4.60394970      -2.91276738       3.75550082
C        5.02095444      -1.50649750       3.47683352
C        6.29442767      -1.22796165       3.15703138
C        6.79139829       0.13178656       2.90339116
C        8.10886409       0.44747028       3.26501966
C        8.63008752       1.72168411       3.02393227
C        7.84298091       2.69236829       2.40786390
C        6.53909593       2.38027305       2.03044822
Br       5.47047785       3.68987933       1.18194937
C        6.01326884       1.10899580       2.26803381
N        5.40851632      -3.66646795       4.44280910
C        4.98283646      -4.94170583       4.81942617
C        5.84924063      -5.74796306       5.56222302
C        5.45650695      -7.02353120       5.97748022
C        4.19005670      -7.50436882       5.64990087
C        3.31622381      -6.70607418       4.91280168
C        3.71797052      -5.42564775       4.50805244
C        2.81803319      -4.55713744       3.72944946
O        1.70575853      -4.99587075       3.43749816
H        2.57917995      -0.78620030      -0.44824894
H        3.99897080      -2.21238244       0.95980612
H        0.76357244      -2.60508904       3.79999162
H       -0.64837230      -1.18400700       2.38025299
H        4.26932203      -0.73518856       3.59745945
H        7.03142351      -2.02602837       3.10281908
H        8.73877583      -0.29483688       3.74991329
H        9.65067599       1.95518430       3.31810575
H        8.25376010       3.68187673       2.22398698
H        4.99907907       0.88508091       1.94809184
H        6.83551242      -5.37366367       5.82348547
H        6.14018411      -7.63866839       6.55796310
H        3.88290835      -8.49744645       5.96879801
H        2.32770542      -7.07978650       4.65544649
