161
Properties=species:S:1:pos:R:3 pbc="F F F"
C        0.00000000       0.00000000       0.00000000
C        0.88173821       0.88173821      -0.88173821
C        1.39045192       0.37743556      -2.07704935
C        2.20212366       1.18631862      -2.87755555
C        2.50112663       2.49625787      -2.49382357
N        3.35308139       3.26764666      -3.29662269
C        2.86119142       4.35229978      -3.80597303
C        3.67170951       5.24888217      -4.65345283
C        3.07787608       6.39178543      -5.19449313
C        3.83214634       7.26174627      -5.98999838
C        5.18162372       6.99620066      -6.22968854
C        5.76476645       5.84044481      -5.70136273
C        5.01476845       4.96794703      -4.91098722
O        6.02399451       7.78273035      -6.97121267
S        5.67680450       9.33135832      -7.34480120
O        4.82101926       9.35324467      -8.51690803
O        5.30611092      10.04448043      -6.13698294
C        7.26074668       9.96475181      -7.86045388
C        7.86816155       9.42537329      -8.99976776
C        9.12115403       9.89692437      -9.39628759
C        9.75089794      10.89978812      -8.65634641
C        9.13942386      11.44141587      -7.52443653
C        7.88672543      10.97452866      -7.12245955
C        1.99657640       2.98283266      -1.28248117
C        1.18087064       2.18182363      -0.47921643
H        1.17151604      -0.63949606      -2.39069151
H        2.61304447       0.79332511      -3.80393961
H        1.81234674       4.65506053      -3.62620473
H        2.03190327       6.61968426      -5.00516037
H        3.33727893       8.13713771      -6.40271289
H        6.81191352       5.61850654      -5.89388501
H        5.48227684       4.07807225      -4.49522281
H        7.37535751       8.64707674      -9.57897290
H        9.59797181       9.47964952     -10.28025366
H        9.62987997      12.22394019      -6.95018448
H        7.41536890      11.39862035      -6.23809387
H        2.25084388       3.98758398      -0.95671121
H        0.79682238       2.57715503       0.45685017
C       11.04570017      11.38005919      -9.06430090
C       12.13009705      11.78228620      -9.40596280
Br      13.88347508      12.43265327      -9.95840118
C       -0.88173821      -0.88173821      -0.88173821
C       -1.20151895      -2.17390356      -0.46951433
C       -2.00374873      -2.97925006      -1.28299904
C       -2.49297280      -2.49800353      -2.50023174
N       -3.25899407      -3.34485541      -3.31350125
C       -4.47556837      -2.97838221      -3.56551365
C       -5.36725911      -3.78424983      -4.42253556
C       -6.67728548      -3.34929944      -4.63756973
C       -7.53489616      -4.09182847      -5.45716636
C       -7.07673184      -5.25818428      -6.07259679
C       -5.77060469      -5.69836983      -5.83759947
C       -4.91342846      -4.96293794      -5.01733630
O       -7.81390816      -6.05363509      -6.91039428
S       -9.19094860      -5.54331773      -7.61869770
O      -10.29117109      -5.71270085      -6.68730001
O       -8.95231868      -4.26779863      -8.26745698
C       -9.42730163      -6.74979568      -8.90885505
C       -9.65315505      -8.08471243      -8.55543512
C       -9.81317326      -9.04153230      -9.55966043
C       -9.74932084      -8.65715489     -10.90055674
C       -9.53134030      -7.32352531     -11.25041066
C       -9.37052491      -6.36180770     -10.25138104
C       -2.14933272      -1.20417249      -2.90838502
C       -1.35167694      -0.39165465      -2.09857912
H       -0.82809172      -2.56674384       0.47212406
H       -2.24463726      -3.99279912      -0.97287282
H       -4.89873388      -2.04400569      -3.15087242
H       -7.04432230      -2.43560438      -4.17682122
H       -8.55047126      -3.73023290      -5.59642538
H       -5.40922885      -6.61295434      -6.30212188
H       -3.89547156      -5.30867934      -4.85142099
H       -9.70745358      -8.38345206      -7.51050151
H       -9.98735254     -10.08064234      -9.28988011
H       -9.48395523      -7.02499103     -12.29505838
H       -9.19868241      -5.32389976     -10.52950094
H       -2.49479171      -0.83165431      -3.86869306
H       -1.09674061       0.61059962      -2.43098625
C       -9.90889365      -9.64707102     -11.93409560
C      -10.04253587     -10.47612578     -12.79968439
Br     -10.25862405     -11.81663722     -14.19926826
C       -0.88173821       0.88173821       0.88173821
C       -1.20782908       0.46593192       2.17117584
C       -2.02031213       1.27359560       2.97209010
C       -2.50131609       2.49549505       2.49439693
N       -3.34919025       3.26229470       3.30586579
C       -2.93319078       4.44115878       3.64511467
C       -3.74963292       5.34090115       4.48351044
C       -3.23619088       6.59116252       4.83680125
C       -3.99927496       7.46442420       5.62019184
C       -5.27947505       7.09294303       6.03509484
C       -5.77962842       5.83247649       5.69446909
C       -5.01996726       4.95685164       4.91688380
O       -6.12573855       7.86880908       6.78338990
S       -5.91844487       9.47657736       6.95794179
O       -4.95690352       9.71569298       8.01857546
O       -5.75345831      10.08352753       5.65058845
C       -7.50339299      10.00110461       7.58145477
C       -7.92876452       9.53441341       8.83012467
C       -9.18039356       9.91890480       9.31506763
C       -9.98980702      10.76402691       8.55319854
C       -9.55992944      11.23417991       7.31116692
C       -8.30966298      10.85365807       6.82039260
C       -2.17896818       2.89156025       1.19136180
C       -1.36365714       2.09177767       0.38647590
H       -0.84586724      -0.48221566       2.55905991
H       -2.28926636       0.94753580       3.97350704
H       -1.94833268       4.82588668       3.31939263
H       -2.24674564       6.90052175       4.50948051
H       -3.56660883       8.42588485       5.88463585
H       -6.77058142       5.52924903       6.02447462
H       -5.42427048       3.98348480       4.64781662
H       -7.29607129       8.87950167       9.42583419
H       -9.51604137       9.55745488      10.28437874
H      -10.19027676      11.89406253       6.71966535
H       -7.98021822      11.22125259       5.85061231
H       -2.57571429       3.82275135       0.79667344
H       -1.12250541       2.41635895      -0.62173712
C      -11.28259507      11.15421201       9.05325319
C      -12.36530506      11.48099203       9.47204895
Br     -14.11595554      12.00936769      10.14920629
C        0.88173821      -0.88173821       0.88173821
C        1.23199246      -2.16040532       0.45253906
C        2.03407921      -2.96595360       1.26596502
C        2.49293497      -2.49813270       2.50014039
N        3.25957634      -3.34581005       3.31196434
C        4.46470011      -2.96246381       3.59230031
C        5.35545818      -3.76773420       4.45085214
C        6.65342491      -3.31361252       4.69711722
C        7.50963498      -4.05549339       5.51876263
C        7.06173878      -5.24067338       6.10510075
C        5.76811764      -5.69959988       5.83885648
C        4.91248154      -4.96479419       5.01642696
O        7.79818426      -6.03791844       6.94183483
S        9.15305623      -5.51615481       7.68375299
O       10.27246287      -5.64923230       6.76947679
O        8.88004074      -4.25695399       8.35057956
C        9.38823776      -6.74130912       8.95640549
C        9.64432420      -8.06543571       8.58354270
C        9.80375759      -9.03721102       9.57339738
C        9.70926996      -8.67824437      10.91951813
C        9.46114019      -7.35520097      11.28893510
C        9.30072968      -6.37863719      10.30434678
C        2.11887101      -1.21814935       2.92486986
C        1.32116250      -0.40541734       2.11533086
H        0.88242652      -2.54276407      -0.50247910
H        2.29863988      -3.96932891       0.94234041
H        4.87823464      -2.01342600       3.20195136
H        7.01203724      -2.38541222       4.25929844
H        8.51590698      -3.67854898       5.68267358
H        5.41511372      -6.62865715       6.28053420
H        3.90401461      -5.32545139       4.82610590
H        9.72248031      -8.34429315       7.53463370
H       10.00137678     -10.06804663       9.28845157
H        9.38990410      -7.07642131      12.33767923
H        9.10532060      -5.34911219      10.59765032
H        2.44051336      -0.85693754       3.89768818
H        1.04236769       0.58601675       2.46077630
C        9.86833559      -9.68364141      11.93808326
C       10.00155306     -10.52566142      12.79113156
Br      10.21695444     -11.88713657      14.17043851
