174
Properties=species:S:1:pos:R:3 pbc="F F F"
C        1.79164223       1.79164223      -1.79164223
C        2.30035595       1.28733959      -2.98695338
C        3.11202768       2.09622265      -3.78745957
C        3.41103065       3.40616190      -3.40372759
N        4.26298541       4.17755069      -4.20652671
C        3.77109545       5.26220381      -4.71587705
C        4.58161353       6.15878619      -5.56335686
C        3.98778010       7.30168946      -6.10439716
C        4.74205037       8.17165029      -6.89990241
C        6.09152774       7.90610468      -7.13959256
C        6.67467048       6.75034884      -6.61126676
C        5.92467247       5.87785105      -5.82089124
O        6.93389853       8.69263437      -7.88111670
S        6.58670853      10.24126235      -8.25470523
O        5.73092328      10.26314870      -9.42681206
O        6.21601495      10.95438445      -7.04688696
C        8.17065070      10.87465584      -8.77035790
C        8.77806557      10.33527732      -9.90967179
C       10.03105806      10.80682840     -10.30619161
C       10.66080196      11.80969215      -9.56625043
Br      12.36070246      12.44022320     -10.10183960
C       10.04932789      12.35131990      -8.43434055
C        8.79662945      11.88443269      -8.03236358
C        2.90648042       3.89273668      -2.19238520
C        2.09077466       3.09172766      -1.38912046
H        2.08142007       0.27040796      -3.30059553
H        3.52294850       1.70322913      -4.71384364
H        2.72225076       5.56496455      -4.53610875
H        2.94180730       7.52958828      -5.91506439
H        4.24718295       9.04704174      -7.31261692
H        7.72181754       6.52841057      -6.80378904
H        6.39218086       4.98797628      -5.40512684
H        8.28526154       9.55698076     -10.48887693
H       10.50787583      10.38955354     -11.19015768
H       10.53978400      13.13384421      -7.86008850
H        8.32527293      12.30852437      -7.14799789
H        3.16074790       4.89748801      -1.86661524
H        1.70672641       3.48705905      -0.45305385
C       -1.79164223      -1.79164223      -1.79164223
C       -1.77764070      -3.17475175      -1.62225646
C       -2.58178029      -3.97796406      -2.43596556
C       -3.40356987      -3.40640806      -3.41094221
N       -4.16552630      -4.24154130      -4.23999520
C       -5.45311793      -4.11156889      -4.18448949
C       -6.35251970      -4.92711503      -5.02412185
C       -7.73386869      -4.75852221      -4.90147582
C       -8.60367565      -5.51251805      -5.69740937
C       -8.09098384      -6.42123852      -6.62500262
C       -6.70806820      -6.59926780      -6.72895007
C       -5.83726623      -5.85229410      -5.93385444
O       -8.83981069      -7.19637063      -7.47146828
S      -10.40694793      -6.88218977      -7.79353840
O      -11.22810566      -7.45181337      -6.74096500
O      -10.54764500      -5.49064177      -8.17899959
C      -10.70114558      -7.86121505      -9.25330381
C      -10.60230026      -9.25427037      -9.16644404
C      -10.80515705     -10.02807741     -10.31084360
C      -11.10621204      -9.40622585     -11.52430665
Br     -11.37265644     -10.45681956     -13.07328925
C      -11.21159880      -8.01676599     -11.60662355
C      -11.00998902      -7.23715943     -10.46627727
C       -3.39408914      -2.01719971      -3.58031345
C       -2.59642215      -1.20745409      -2.76774653
H       -1.14307385      -3.63771961      -0.87163010
H       -2.56415632      -5.05831343      -2.31755151
H       -5.93485187      -3.38190238      -3.50656982
H       -8.14797072      -4.04462147      -4.19386779
H       -9.67288344      -5.36329987      -5.57065830
H       -6.30006471      -7.31458889      -7.43936354
H       -4.76276145      -5.99053605      -6.03198648
H      -10.37219118      -9.73909586      -8.21983219
H      -10.72782095     -11.11113697     -10.24862915
H      -11.44824050      -7.53370304     -12.55177317
H      -11.09117933      -6.15427763     -10.53633823
H       -4.00229258      -1.56426950      -4.35828906
H       -2.60343728      -0.13088830      -2.91251373
C       -1.79164223       1.79164223       1.79164223
C       -1.70785657       3.17876965       1.68802269
C       -2.51248588       3.98155577       2.50166825
C       -3.40378820       3.40607227       3.41105967
N       -4.16561352       4.23804998       4.24339932
C       -5.45371626       4.17114389       4.12431616
C       -6.35407012       4.98954018       4.96014628
C       -7.73431638       4.89149016       4.76806018
C       -8.60584448       5.64903425       5.55872433
C       -8.09702160       6.49033219       6.54987119
C       -6.71391396       6.59856204       6.72381007
C       -5.84111803       5.84794123       5.93435550
O       -8.84924492       7.26104075       7.39736393
S      -10.44223308       7.00651427       7.63392876
O      -11.18687976       7.66049584       6.57350844
O      -10.66294660       5.60723334       7.94710642
C      -10.76038646       7.93195454       9.12332345
C      -10.59535568       9.32134066       9.10631833
C      -10.81676982      10.05182459      10.27548366
C      -11.20185185       9.39109046      11.44380223
Br     -11.49328722      10.38265738      13.02682065
C      -11.37303669       8.00580189      11.45614977
C      -11.15331627       7.26940769      10.29070177
C       -3.46441310       2.01175958       3.51542963
C       -2.66658860       1.20270594       2.70232824
H       -1.01875043       3.64462515       0.98904799
H       -2.44101821       5.06410871       2.43489434
H       -5.93533007       3.49590359       3.39209040
H       -8.14634437       4.23014292       4.00997268
H       -9.67354595       5.55588132       5.37741434
H       -6.30803957       7.26148678       7.48449079
H       -4.76728127       5.93117328       6.08682942
H      -10.29970021       9.83672076       8.19469826
H      -10.68822651      11.13177080      10.26758976
H      -11.67506372       7.49255203      12.36610096
H      -11.28606527       6.18946834      10.30626159
H       -4.12804314       1.55346222       4.24334580
H       -2.72853480       0.12225269       2.79605182
C        1.79164223      -1.79164223       1.79164223
C        2.82237217      -1.21841649       2.53386024
C        3.63061500      -2.03053949       3.33455542
C        3.40958775      -3.40861600       3.40271639
N        4.26438619      -4.20178100       4.18089561
C        3.73151434      -4.84997373       5.16768823
C        4.53319958      -5.72737833       6.04317868
C        3.90610823      -6.38109301       7.10666548
C        4.64535560      -7.22749425       7.94075322
C        6.00546708      -7.43115716       7.70060074
C        6.63115896      -6.75867927       6.64644784
C        5.89829219      -5.91026491       5.81485767
O        6.82492077      -8.25032208       8.43240676
S        6.24834612      -9.40104201       9.43328797
O        5.91781148      -8.79365421      10.70941835
O        5.28093485     -10.21484143       8.72151008
C        7.68383390     -10.41964279       9.71218775
C        8.79075039      -9.86669693      10.36556735
C        9.92981045     -10.64920801      10.56505961
C        9.95104436     -11.97083563      10.11486455
Br      11.49791614     -13.02487024      10.37997888
C        8.84268390     -12.52232537       9.46997907
C        7.70062643     -11.74550826       9.26729103
C        2.38124533      -3.97182727       2.63852970
C        1.56631566      -3.16593322       1.83937390
H        3.01156309      -0.14936735       2.49149312
H        4.44483858      -1.59057556       3.90460712
H        2.65151953      -4.77573884       5.39606570
H        2.84477056      -6.24381481       7.29787461
H        4.12878919      -7.71372269       8.76432972
H        7.69316465      -6.90086207       6.45999042
H        6.39317738      -5.40175074       4.99035585
H        8.77249074      -8.83819489      10.72043360
H       10.79325066     -10.22333736      11.07099905
H        8.85958936     -13.55241382       9.12171352
H        6.84010698     -12.17958624       8.76210198
H        2.22217871      -5.04639040       2.65628204
H        0.77178543      -3.62053703       1.25451686
C       -0.00445707       0.01189536      -1.78238275
H       -0.66409135       0.67374010      -2.43557963
H        0.65740317      -0.63156657      -2.45157240
C       -0.90989263      -0.90692880      -0.91072765
C        0.90977584       0.90977584      -0.90977584
C       -0.00465871       1.77757030       0.00794375
H       -0.66225468       2.44313916      -0.64384735
H        0.64322798       2.43503045       0.67728295
C       -1.78241447       0.00034974      -0.00472694
H       -2.45427497      -0.65498947       0.64260836
H       -2.43311707       0.67328779      -0.65473579
C       -0.91132561       0.90220522       0.91563759
C       -0.01476271      -0.02253852       1.78660255
H       -0.67934791      -0.69751639       2.42135241
H        0.63392994       0.61504881       2.47327442
C        0.01484550      -1.77751727      -0.01636693
H        0.67870853      -2.42144646      -0.68295456
H       -0.62264859      -2.45592969       0.64226336
C        1.78714474       0.01002794       0.00389507
H        2.44202412       0.67113390       0.66197326
H        2.45385902      -0.65136977      -0.64189061
C        0.91606151      -0.90478549       0.90901405
