162
Properties=species:S:1:pos:R:3 pbc="F F F"
C        1.79320537       1.79320537      -1.79320537
C        3.12671492       1.45633643      -1.99469710
C        3.92582288       2.27237043      -2.79984533
C        3.41512277       3.43095797      -3.40748554
C        2.06355839       3.73625741      -3.19948223
C        1.25233551       2.92777641      -2.39504748
C        4.29488042       4.28971633      -4.23531475
C        4.03993040       5.76626583      -4.34979841
N        5.30751819       3.69587743      -4.90960312
N        6.10398598       4.60720905      -5.71170952
C        7.03887866       4.03759692      -6.50544685
C        7.20040208       2.54630839      -6.60677418
C        7.92876648       4.93904991      -7.29164714
C        7.73255999       6.33168578      -7.27993003
C        8.54253294       7.19984586      -8.01843266
C        9.57380072       6.67799857      -8.78963939
C        9.80399850       5.30563965      -8.81999414
C        8.98746081       4.44806002      -8.07168760
H        3.56665110       0.57259448      -1.54734179
H        4.97171854       2.02420527      -2.97773634
H        1.63397174       4.60160265      -3.69399605
H        0.21107814       3.19344504      -2.25966384
H        3.26465256       6.11455123      -3.66056177
H        3.72106219       6.03178367      -5.36257892
H        4.93557048       6.34378019      -4.09633792
H        6.36718928       1.96311895      -6.20512006
H        8.10718560       2.22918538      -6.08008915
H        7.28438959       2.23747080      -7.65491844
H        6.91980795       6.72902796      -6.67217720
H        8.34439062       8.26386208      -7.97244472
H       10.60640038       4.88414604      -9.41357421
H        9.18448201       3.38199346      -8.09740374
C       10.40984462       7.56061068      -9.56140778
C       11.11003139       8.29979833     -10.20776381
Br      12.24217417       9.49500223     -11.25286685
C       -1.79320537      -1.79320537      -1.79320537
C       -3.17275239      -1.62274313      -1.78225293
C       -3.97063994      -2.43775152      -2.58964717
C       -3.41213624      -3.43161490      -3.40981515
C       -2.01778091      -3.56933569      -3.41218144
C       -1.20716687      -2.75998183      -2.60801071
C       -4.28723921      -4.29705094      -4.23562135
C       -3.87294843      -5.69890819      -4.58413802
N       -5.44832469      -3.77197478      -4.69269928
N       -6.23160265      -4.68064678      -5.51065514
C       -7.32991474      -4.15405749      -6.09795020
C       -7.68413786      -2.69849185      -5.97085493
C       -8.20400096      -5.06792484      -6.88753774
C       -7.84013177      -6.41081731      -7.09322671
C       -8.63310445      -7.28667159      -7.84103543
C       -9.81719738      -6.82314671      -8.40109459
C      -10.21459462      -5.50263453      -8.21240314
C       -9.41252189      -4.63746014      -7.45722640
H       -3.65052654      -0.86968073      -1.16638009
H       -5.05344832      -2.31741085      -2.60280097
H       -1.55896326      -4.30001769      -4.07058951
H       -0.13268909      -2.89299832      -2.63849961
H       -2.97293948      -6.01742085      -4.04940522
H       -3.66786290      -5.79239584      -5.65516603
H       -4.64775938      -6.42167146      -4.30625774
H       -6.88042345      -2.05850922      -5.59649562
H       -8.54079781      -2.57677383      -5.29888848
H       -7.94976283      -2.27911917      -6.94789684
H       -6.90863728      -6.76242923      -6.64994660
H       -8.30254994      -8.31049123      -7.96765624
H      -11.13688713      -5.12757334      -8.63966017
H       -9.73940965      -3.61393571      -7.31053385
C      -10.63865323      -7.71277745      -9.18043241
C      -11.32662250      -8.45784319      -9.83312784
Br     -12.43901063      -9.66255148     -10.88848114
C       -1.79320537       1.79320537       1.79320537
C       -1.25071002       2.91164592       2.41539252
C       -2.06528914       3.70923219       3.22351731
C       -3.42093833       3.40464303       3.42798492
C       -3.94368991       2.28051641       2.77509171
C       -3.13875877       1.47300641       1.96339423
C       -4.25254839       4.25600569       4.31135742
C       -5.41836313       3.67605163       5.06157988
N       -3.94988076       5.57318563       4.38993236
N       -4.82830414       6.33523399       5.25936643
C       -4.64587726       7.67509187       5.26095330
C       -3.64176003       8.34615802       4.36556659
C       -5.47608477       8.49046255       6.19291621
C       -6.48291139       7.89073004       6.97053437
C       -7.28597016       8.63261216       7.84222915
C       -7.08931151      10.00400159       7.94812558
C       -6.09712530      10.63183002       7.20067697
C       -5.29707588       9.87546439       6.33466816
H       -0.21038517       3.18780875       2.28839344
H       -1.66367562       4.59463299       3.71535154
H       -4.99875777       2.04936465       2.88144803
H       -3.57845365       0.61376676       1.47196661
H       -5.46487515       2.58514266       4.98974774
H       -6.36545721       4.07005837       4.67990920
H       -5.34844874       3.89453235       6.13270750
H       -3.26014302       7.72377408       3.55151119
H       -2.78039286       8.68370511       4.95236216
H       -4.08626963       9.21808723       3.87242197
H       -6.62843374       6.81459433       6.87798505
H       -8.04715152       8.11772848       8.41581743
H       -5.92935623      11.69960774       7.27515666
H       -4.52166167      10.37648499       5.76573256
C       -7.91521086      10.78072841       8.83592382
C       -8.60690156      11.43123713       9.57945484
Br      -9.72530692      12.48305470      10.78168163
C        1.79320537      -1.79320537       1.79320537
C        1.24334432      -2.89329905       2.44110508
C        2.05808427      -3.69098887       3.24896549
C        3.42129970      -3.40453838       3.42772820
C        3.95102880      -2.29892416       2.74934507
C        3.14603151      -1.49151904       1.93760886
C        4.25341547      -4.25509869       4.31139734
C        5.43962626      -3.68196945       5.03439893
N        3.93175450      -5.56601346       4.41523079
N        4.81183039      -6.32822841       5.28284577
C        4.60882687      -7.66488369       5.30821186
C        3.58059886      -8.33387039       4.43901540
C        5.44085546      -8.47869003       6.23991803
C        6.46884998      -7.88287683       6.99244898
C        7.27392555      -8.62371612       7.86316980
C        7.05784028      -9.99006535       7.99353306
C        6.04452186     -10.61373194       7.27137849
C        5.24276707      -9.85837211       6.40606924
H        0.19702757      -3.15507118       2.33448862
H        1.65062191      -4.56231236       3.76072588
H        5.01106840      -2.08270105       2.83580100
H        3.59116930      -0.64694008       1.42607763
H        5.50181240      -2.59315836       4.94479480
H        6.37444766      -4.09658414       4.64439298
H        5.38312528      -3.88279863       6.10976468
H        3.19592414      -7.71820784       3.62129632
H        2.72342159      -8.64881398       5.04422456
H        4.00384828      -9.22014454       3.95278602
H        6.62947070      -6.81070417       6.88083825
H        8.05183360      -8.11203079       8.41683303
H        5.86150579     -11.67747890       7.36513595
H        4.45091602     -10.35590327       5.85705992
C        7.88546602     -10.76585025       8.88054682
C        8.57860258     -11.41557010       9.62342085
Br       9.69934577     -12.46611216      10.82458532
C       -0.00445707       0.01189536      -1.78238275
H       -0.66409135       0.67374010      -2.43557963
H        0.65740317      -0.63156657      -2.45157240
C       -0.90989263      -0.90692880      -0.91072765
C        0.90977584       0.90977584      -0.90977584
C       -0.00465871       1.77757030       0.00794375
H       -0.66225468       2.44313916      -0.64384735
H        0.64322798       2.43503045       0.67728295
C       -1.78241447       0.00034974      -0.00472694
H       -2.45427497      -0.65498947       0.64260836
H       -2.43311707       0.67328779      -0.65473579
C       -0.91132561       0.90220522       0.91563759
C       -0.01476271      -0.02253852       1.78660255
H       -0.67934791      -0.69751639       2.42135241
H        0.63392994       0.61504881       2.47327442
C        0.01484550      -1.77751727      -0.01636693
H        0.67870853      -2.42144646      -0.68295456
H       -0.62264859      -2.45592969       0.64226336
C        1.78714474       0.01002794       0.00389507
H        2.44202412       0.67113390       0.66197326
H        2.45385902      -0.65136977      -0.64189061
C        0.91606151      -0.90478549       0.90901405
