178
Properties=species:S:1:pos:R:3 pbc="F F F"
C        1.79170464       1.79170464      -1.79170464
C        1.23214769       2.86772870      -2.47539343
C        2.04219691       3.66137533      -3.29279702
C        3.40547122       3.38931210      -3.43705372
C        3.95833535       2.33466623      -2.69942515
C        3.15231221       1.52175307      -1.89674648
N        4.16947234       4.24736933      -4.23911710
C        5.06927555       3.81975734      -5.06097834
N        5.50998272       2.55319118      -5.46476789
C        6.69207067       2.64730303      -6.34843417
C        6.89381995       4.12670849      -6.46565820
C        7.85966462       4.81972092      -7.17656664
C        7.83148516       6.21876460      -7.14099425
C        6.84770362       6.90334831      -6.40377494
C        5.88191427       6.19863193      -5.68437288
C        5.92961646       4.81720704      -5.73366948
C        4.68142490       1.44722331      -5.75275293
C        3.36535833       1.59921594      -6.21229258
C        2.56687791       0.48573173      -6.49065384
C        3.07896088      -0.79523244      -6.30522608
C        4.38256194      -0.97290480      -5.85208901
C        5.17921956       0.14376316      -5.58395348
H        0.17663614       3.10115249      -2.37955768
H        1.61194631       4.50804570      -3.82018393
H        5.02451263       2.13321309      -2.75839570
H        3.60054828       0.68822483      -1.36104981
H        6.51134458       2.21969584      -7.34235482
H        7.55868917       2.17307243      -5.87439330
H        8.62223334       4.30096742      -7.74891715
H        8.57947241       6.78795274      -7.69002605
H        6.84345600       7.99097282      -6.39085076
H        5.12046685       6.70919936      -5.10348875
H        2.94914853       2.59253348      -6.36193966
H        1.54984169       0.63301813      -6.84338886
H        4.78517304      -1.96989201      -5.69448345
H        6.18726232      -0.00938142      -5.20619263
C        2.25519346      -1.94358214      -6.58145101
C        1.56528824      -2.90532500      -6.81278939
Br       0.44976986      -4.46038188      -7.18684400
C       -1.79170464      -1.79170464      -1.79170464
C       -1.73676379      -1.66172093      -3.17678509
C       -2.55783379      -2.46135396      -3.97718150
C       -3.43607263      -3.38771021      -3.40805420
C       -3.43734049      -3.53950771      -2.01557853
C       -2.63615377      -2.72903053      -1.20562746
N       -4.20196972      -4.18671643      -4.26727263
C       -5.44757740      -4.45098231      -4.05145151
N       -6.38442254      -4.05477002      -3.08874923
C       -7.65966353      -4.78823089      -3.23991345
C       -7.39913594      -5.65085717      -4.43619353
C       -8.24222949      -6.55969668      -5.05402601
C       -7.76826023      -7.24294181      -6.18004196
C       -6.47040926      -7.01214642      -6.67227119
C       -5.62405905      -6.10015370      -6.04070633
C       -6.11343355      -5.43727207      -4.92978736
C       -6.54716930      -2.74431762      -2.58991423
C       -6.21923000      -1.61054310      -3.34709376
C       -6.39142996      -0.32372257      -2.82811094
C       -6.89015980      -0.15982618      -1.53896853
C       -7.22501267      -1.26875531      -0.76797817
C       -7.05922182      -2.55252795      -1.29518643
H       -1.06263271      -0.95092503      -3.64378857
H       -2.51101222      -2.37047750      -5.05868621
H       -4.07701169      -4.28620159      -1.55290814
H       -2.68112062      -2.84358870      -0.12511360
H       -8.50797282      -4.12287474      -3.44254767
H       -7.85181655      -5.40173758      -2.35260077
H       -9.24531258      -6.74422776      -4.68257757
H       -8.40993625      -7.96339607      -6.68411888
H       -6.12266730      -7.55309258      -7.54951970
H       -4.61713250      -5.91509448      -6.40092799
H       -5.82774583      -1.72032112      -4.35555471
H       -6.12687272       0.53688350      -3.43625946
H       -7.60441433      -1.14857403       0.24322387
H       -7.30081284      -3.41063868      -0.67262200
C       -7.05880587       1.16417440      -0.99843086
C       -7.20004695       2.27302488      -0.54573057
Br      -7.42842183       4.06594233       0.18624752
C       -1.79170464       1.79170464       1.79170464
C       -1.21050338       2.59886507       2.76590137
C       -2.02483173       3.39185804       3.57967949
C       -3.41467411       3.38455511       3.43260782
C       -3.97475652       2.60574926       2.41192095
C       -3.17058317       1.79251838       1.60771021
N       -4.17057953       4.23280106       4.25257818
C       -5.27874463       3.86604550       4.80522109
N       -6.00041681       2.66704812       4.86047686
C       -7.30521988       2.85067633       5.53191165
C       -7.27372326       4.29846990       5.91399347
C       -8.23343440       5.04436756       6.57815021
C       -7.96253834       6.39339110       6.83531457
C       -6.74732834       6.97637363       6.43112489
C       -5.78790796       6.22063923       5.75637188
C       -6.07746028       4.89028283       5.51274988
C       -5.44754703       1.38234909       5.05150503
C       -4.24724047       1.18152664       5.74809974
C       -3.72266576      -0.10262875       5.92322647
C       -4.39483869      -1.20130227       5.39541809
C       -5.58877946      -1.02887358       4.70184027
C       -6.11315428       0.25624950       4.53753242
H       -0.13382080       2.62380115       2.89972436
H       -1.57502284       4.03081675       4.33433634
H       -5.04876410       2.62005126       2.24730606
H       -3.63380755       1.17131970       0.84469568
H       -7.40692925       2.23342171       6.43304428
H       -8.12371049       2.65118480       4.83125961
H       -9.17356726       4.60378947       6.89476118
H       -8.69997216       7.00262576       7.35485328
H       -6.55677560       8.02624162       6.64226236
H       -4.84849084       6.65499729       5.42966683
H       -3.70877687       2.02858014       6.16626466
H       -2.78955622      -0.22866004       6.46535251
H       -6.11312217      -1.88090663       4.27754895
H       -7.03345509       0.37901946       3.97159897
C       -3.85133986      -2.52389153       5.56561400
C       -3.39615959      -3.63156005       5.70815309
Br      -2.66017160      -5.42256635       5.93862672
C        1.79170464      -1.79170464       1.79170464
C        1.72436844      -1.67359969       3.17730169
C        2.54543075      -2.47306370       3.97787480
C        3.43590300      -3.38748245       3.40845160
C        3.44981017      -3.52777768       2.01483888
C        2.64861852      -2.71722886       1.20496438
N        4.20130990      -4.18725591       4.26739296
C        5.45077758      -4.43953776       4.05969588
N        6.39216561      -4.02775265       3.10802353
C        7.67213213      -4.75198148       3.26369426
C        7.40895164      -5.62654412       4.45069088
C        8.25442950      -6.53352181       5.06800087
C        7.77691727      -7.22988158       6.18444515
C        6.47322532      -7.01377434       6.66782721
C        5.62457732      -6.10355705       6.03678470
C        6.11753819      -5.42755791       4.93539688
C        6.54817557      -2.71194453       2.62128106
C        6.20471758      -1.58717170       3.38497758
C        6.37053973      -0.29475041       2.87797334
C        6.87842721      -0.11615681       1.59437050
C        7.22870639      -1.21591550       0.81712426
C        7.06920052      -2.50530451       1.33243117
H        1.04060276      -0.97221549       3.64452806
H        2.48901840      -2.39149382       5.05966371
H        4.09937885      -4.26537498       1.55136759
H        2.70336344      -2.82250219       0.12395729
H        8.51324086      -4.08140350       3.47875088
H        7.87658736      -5.35655902       2.37300852
H        9.26200422      -6.70677439       4.70333930
H        8.42036815      -7.94919595       6.68788710
H        6.12279299      -7.56476123       7.53772536
H        4.61324685      -5.92971523       6.39019288
H        5.80591774      -1.70845916       4.38924477
H        6.09393073       0.55861957       3.49093753
H        7.61536118      -1.08430168      -0.18989838
H        7.32294217      -3.35624827       0.70488308
C        7.04056541       1.21359069       1.06608761
C        7.17635615       2.32725422       0.62365070
Br       7.39591829       4.12795395      -0.09173237
C       -0.00445707       0.01189536      -1.78238275
H       -0.66409135       0.67374010      -2.43557963
H        0.65740317      -0.63156657      -2.45157240
C       -0.90989263      -0.90692880      -0.91072765
C        0.90977584       0.90977584      -0.90977584
C       -0.00465871       1.77757030       0.00794375
H       -0.66225468       2.44313916      -0.64384735
H        0.64322798       2.43503045       0.67728295
C       -1.78241447       0.00034974      -0.00472694
H       -2.45427497      -0.65498947       0.64260836
H       -2.43311707       0.67328779      -0.65473579
C       -0.91132561       0.90220522       0.91563759
C       -0.01476271      -0.02253852       1.78660255
H       -0.67934791      -0.69751639       2.42135241
H        0.63392994       0.61504881       2.47327442
C        0.01484550      -1.77751727      -0.01636693
H        0.67870853      -2.42144646      -0.68295456
H       -0.62264859      -2.45592969       0.64226336
C        1.78714474       0.01002794       0.00389507
H        2.44202412       0.67113390       0.66197326
H        2.45385902      -0.65136977      -0.64189061
C        0.91606151      -0.90478549       0.90901405
