157
Properties=species:S:1:pos:R:3 pbc="F F F"
C        0.00000000       0.00000000       0.00000000
C        0.88180062       0.88180062      -0.88180062
C        0.32224366       1.95782467      -1.56548941
C        1.13229288       2.75147131      -2.38289299
C        2.49556719       2.47940808      -2.52714970
C        3.04843132       1.42476221      -1.78952112
C        2.24240819       0.61184904      -0.98684246
N        3.25956832       3.33746531      -3.32921308
C        4.15937152       2.90985332      -4.15107431
N        4.60007870       1.64328715      -4.55486387
C        5.78216665       1.73739900      -5.43853015
C        5.98391593       3.21680446      -5.55575418
C        6.94976060       3.90981690      -6.26666261
C        6.92158113       5.30886057      -6.23109022
C        5.93779960       5.99344428      -5.49387092
C        4.97201024       5.28872790      -4.77446886
C        5.01971244       3.90730301      -4.82376546
C        3.77152088       0.53731929      -4.84284890
C        2.45545430       0.68931192      -5.30238856
C        1.65697388      -0.42417230      -5.58074982
C        2.16905686      -1.70513647      -5.39532205
C        3.47265792      -1.88280882      -4.94218498
C        4.26931554      -0.76614086      -4.67404946
H       -0.73326788       2.19124847      -1.46965365
H        0.70204229       3.59814167      -2.91027990
H        4.11460860       1.22330907      -1.84849168
H        2.69064426      -0.22167919      -0.45114579
H        5.60144055       1.30979181      -6.43245080
H        6.64878515       1.26316840      -4.96448928
H        7.71232931       3.39106340      -6.83901312
H        7.66956839       5.87804871      -6.78012203
H        5.93355197       7.08106880      -5.48094673
H        4.21056283       5.79929534      -4.19358472
H        2.03924451       1.68262945      -5.45203564
H        0.63993767      -0.27688589      -5.93348484
H        3.87526902      -2.87979604      -4.78457943
H        5.27735829      -0.91928545      -4.29628861
C        1.34528944      -2.85348616      -5.67154699
C        0.65538422      -3.81522903      -5.90288537
Br      -0.46013417      -5.37028590      -6.27693997
C       -0.88180062      -0.88180062      -0.88180062
C       -0.65100409      -0.94104414      -2.25350951
C       -1.47165819      -1.73830490      -3.05669410
C       -2.52308296      -2.47488643      -2.50415557
C       -2.70472927      -2.44234642      -1.11563897
C       -1.90333978      -1.63086664      -0.30689328
N       -3.28254315      -3.28557484      -3.35812871
C       -4.56850196      -3.37397482      -3.27782238
N       -5.55028221      -2.75005395      -2.49789356
C       -6.88438358      -3.34498699      -2.72872522
C       -6.60255965      -4.38070660      -3.77320831
C       -7.48021593      -5.25911946      -4.38690472
C       -6.97288858      -6.13363721      -5.35500613
C       -5.60798340      -6.12032150      -5.69680989
C       -4.72829197      -5.23738563      -5.06952939
C       -5.25170769      -4.38311528      -4.11595793
C       -5.59690573      -1.37572564      -2.17905770
C       -5.03858802      -0.39600239      -3.01256437
C       -5.09993002       0.95877706      -2.67239844
C       -5.71828149       1.34605047      -1.48701142
C       -6.28175459       0.39339366      -0.64367314
C       -6.22537709      -0.95871978      -0.99312726
H        0.15950437      -0.37985125      -2.70728736
H       -1.28897100      -1.79547159      -4.12602127
H       -3.48549384      -3.04342787      -0.65748764
H       -2.08717940      -1.59736272       0.76443127
H       -7.60945013      -2.61845142      -3.11578162
H       -7.25604646      -3.81106138      -1.80933499
H       -8.53489146      -5.27664432      -4.13087006
H       -7.64072081      -6.83491491      -5.85210341
H       -5.23505355      -6.80766977      -6.45284419
H       -3.67105739      -5.21831759      -5.31406791
H       -4.55114003      -0.68095879      -3.94181077
H       -4.65688849       1.69628354      -3.33593167
H       -6.75626220       0.68755893       0.28865086
H       -6.64714011      -1.69453457      -0.31268677
C       -5.77375348       2.73984675      -1.12944352
C       -5.82021128       3.90715113      -0.82998041
Br      -5.89532960       5.79458358      -0.34577389
C       -0.88180062       0.88180062       0.88180062
C       -0.31393588       1.92851199       1.60310988
C       -1.12453242       2.72199920       2.42012556
C       -2.49667609       2.47869435       2.52675452
C       -3.05609997       1.45442680       1.75218789
C       -2.25031272       0.64144082       0.94934614
N       -3.25941687       3.33583061       3.33099922
C       -4.18775726       2.91071247       4.12182942
N       -4.66665034       1.64590531       4.48567407
C       -5.86663774       1.74742572       5.34403233
C       -6.03718485       3.22808007       5.49120965
C       -7.00330228       3.92706976       6.19586806
C       -6.94230520       5.32551797       6.19370877
C       -5.92613515       6.00356836       5.49541129
C       -4.96014188       5.29307656       4.78198856
C       -5.04056951       3.91238079       4.79783060
C       -3.87057425       0.51454761       4.76656722
C       -2.56249333       0.62514073       5.25952072
C       -1.79642516      -0.51280510       5.52993135
C       -2.33319244      -1.77685471       5.30290471
C       -3.62955176      -1.91355205       4.81603436
C       -4.39396466      -0.77270074       4.55596021
H        0.74859265       2.13929484       1.53693205
H       -0.68749193       3.54608168       2.97689025
H       -4.12769430       1.27669036       1.78202469
H       -2.70483393      -0.16889548       0.38417240
H       -5.71905521       1.29308335       6.33154461
H       -6.73254238       1.30457804       4.83932241
H       -7.79072569       3.41335350       6.73832666
H       -7.68972484       5.89935255       6.73866174
H       -5.89671026       7.09080641       5.50805083
H       -4.17382666       5.79883259       4.23078365
H       -2.12728957       1.60476045       5.44185957
H       -0.78482192      -0.39747291       5.90918761
H       -4.05106175      -2.89697578       4.62596644
H       -5.39612743      -0.89352608       4.15176010
C       -1.54259828      -2.95019042       5.57094240
C       -0.88047567      -3.93285907       5.79542396
Br       0.19012059      -5.52175116       6.15839166
C        0.88180062      -0.88180062       0.88180062
C        0.97605112      -0.62297576       2.24653087
C        1.79700419      -1.42466061       3.04499239
C        2.52774681      -2.48076031       2.49361785
C        2.37761172      -2.75655910       1.12854384
C        1.57639363      -1.94695358       0.31775247
N        3.29989711      -3.27107602       3.35527357
C        4.48920661      -3.67559171       3.05550084
N        5.35804949      -3.46219077       1.97798946
C        6.57082805      -4.30161418       2.08565357
C        6.35338703      -5.02313321       3.37995432
C        7.16828536      -5.95164239       4.00631236
C        6.74850192      -6.48059720       5.23243281
C        5.53174916      -6.07922380       5.81414183
C        4.71254865      -5.14850267       5.17415569
C        5.14726089      -4.63989457       3.96362545
C        5.58785363      -2.22446577       1.33936967
C        5.43972704      -1.00033026       2.00709749
C        5.67478114       0.21122786       1.34999813
C        6.05625699       0.20837542       0.01136088
C        6.21210355      -0.99306374      -0.67313322
C        5.98448879      -2.20149550      -0.00876016
H        0.41809481       0.19012408       2.69966351
H        1.86575511      -1.23269851       4.11201024
H        2.89861746      -3.60143629       0.68635560
H        1.50377274      -2.16211221      -0.74577410
H        7.49140768      -3.70791806       2.14435743
H        6.61830763      -5.00842495       1.24971024
H        8.10902461      -6.26714639       3.56623484
H        7.36948182      -7.21271985       5.74553745
H        5.22525093      -6.50201707       6.76829950
H        3.76693741      -4.83310482       5.60340066
H        5.14163743      -0.97969801       3.05257415
H        5.55015734       1.14497387       1.89135314
H        6.49888364      -1.00243749      -1.72126872
H        6.08515099      -3.13179340      -0.56258294
C        6.28900091       1.45519272      -0.67045792
C        6.48392395       2.49940221      -1.24148117
Br       6.79909802       4.18780064      -2.16477747
