157
Properties=species:S:1:pos:R:3 pbc="F F F"
C        0.00000000       0.00000000       0.00000000
C        9.30467729       4.38344000     -10.93310116
C        8.69262941       5.66454343     -10.39157528
O        7.28183579       5.46834978     -10.32093602
C        6.58092245       6.26700545      -9.45876688
C        5.38527333       5.68589339      -9.01900437
C        4.53175678       6.35570039      -8.13387217
C        3.29085373       5.69632750      -7.72108073
C        3.11491762       5.00248504      -6.59040597
S        4.22437487       4.76851519      -5.29334861
C        3.09771274       3.75747276      -4.41477735
N        3.37867907       3.30766272      -3.24147620
C        2.50041692       2.50692703      -2.49975288
C        1.16891381       2.85638018      -2.24153855
C        0.35308840       2.03625946      -1.45529355
C        0.88132903       0.88132903      -0.88132903
C        2.21442159       0.54008702      -1.09116011
C        3.01543863       1.35237780      -1.89907797
N        1.97255427       3.56434146      -5.14852996
C        1.85834843       4.25438318      -6.32120863
O        0.86490764       4.25850073      -7.03049091
C        4.87330813       7.63165248      -7.68543665
C        6.05305048       8.22812886      -8.14064967
Br       6.47104395       9.98055775      -7.53963784
C        6.90499550       7.55738399      -9.03197637
O        8.03054436       8.18152606      -9.50350798
H       10.38985682       4.47817471     -11.02754949
H        8.88294905       4.13663504     -11.91308879
H        9.08011472       3.54133948     -10.26949772
H        8.91614136       6.48511894     -11.08114924
H        9.12157096       5.86438443      -9.40273395
H        5.12846171       4.68966902      -9.37450155
H        2.48982202       5.74146703      -8.45821044
H        0.75672595       3.78310396      -2.63228955
H       -0.68201528       2.31695041      -1.27931125
H        2.64386000      -0.34205794      -0.62329378
H        4.06265956       1.09554792      -2.04558590
H        1.20558644       2.99352157      -4.83382359
H        4.22022789       8.16308157      -6.99818713
H        8.04775586       9.08168203      -9.13069780
C      -11.91135458      -7.51112808      -5.19873580
C      -10.94516940      -7.43450374      -6.36907498
O      -10.51227583      -6.08010462      -6.47874114
C       -9.32879043      -5.85144259      -7.12646175
C       -8.70034513      -4.66707077      -6.72275520
C       -7.47963890      -4.26397491      -7.27771553
C       -6.88047441      -3.00872702      -6.81906053
C       -5.93084710      -2.89373245      -5.88322908
S       -5.09856200      -4.14574019      -5.04193649
C       -4.17714904      -2.99772356      -4.09509027
N       -3.26673781      -3.38842956      -3.27265063
C       -2.49835544      -2.50245912      -2.50628226
C       -1.79298899      -1.42227009      -3.05157346
C       -1.00564496      -0.59863553      -2.24036092
C       -0.88132903      -0.88132903      -0.88132903
C       -1.54030966      -1.97611542      -0.32924364
C       -2.34524921      -2.77888391      -1.14276128
N       -4.57532594      -1.73168406      -4.37841569
C       -5.48043208      -1.56623845      -5.38726971
O       -5.85044022      -0.48562307      -5.81783598
C       -6.87880501      -5.05267640      -8.25891585
C       -7.51359243      -6.22329102      -8.68494556
Br      -6.68736517      -7.25565739     -10.04821698
C       -8.73981407      -6.62327783      -8.13126395
O       -9.36787935      -7.74789197      -8.59980707
H      -12.29412244      -8.52768281      -5.07377577
H      -12.75534611      -6.82951416      -5.34781261
H      -11.41512576      -7.20416049      -4.27166567
H      -11.47003458      -7.72846960      -7.28390536
H      -10.10545115      -8.11112354      -6.17211465
H       -9.17732813      -4.05926288      -5.95604127
H       -7.32330957      -2.11294309      -7.25324684
H       -1.83117848      -1.22177831      -4.11916268
H       -0.47833056       0.24395834      -2.67987416
H       -1.42548972      -2.22273624       0.72313011
H       -2.84336970      -3.64623555      -0.71418813
H       -4.18576291      -0.92153120      -3.92563747
H       -5.93128385      -4.75196068      -8.69825205
H       -8.82634223      -8.10859136      -9.32520209
C       -8.49618338      11.46330837       4.66172670
C       -8.78546937      10.33069119       5.63258756
O       -9.04971670       9.16156648       4.85983841
C       -8.87885768       7.95178975       5.47604735
C       -8.59662548       6.91301192       4.58053369
C       -8.39352646       5.60133839       5.02646450
C       -8.11254047       4.55903701       4.03668448
C       -6.89772030       4.10965844       3.70042988
S       -5.37167654       4.54095257       4.37360957
C       -4.50654223       3.49087237       3.27254826
N       -3.23090006       3.33838911       3.35852882
C       -2.50274857       2.49822379       2.50612447
C       -2.82757490       1.15379495       2.28546269
C       -2.03489413       0.35237178       1.45737550
C       -0.88132903       0.88132903       0.88132903
C       -0.51870976       2.20320144       1.12375752
C       -1.33058344       3.00399956       1.93231140
N       -5.37018511       2.92037666       2.39486393
C       -6.70347882       3.14379065       2.58667077
O       -7.59568265       2.61647440       1.94174222
C       -8.48136084       5.31928949       6.38974693
C       -8.78814698       6.34698385       7.28669818
Br      -8.93628454       5.92294250       9.13201250
C       -8.99653386       7.66035351       6.83746848
O       -9.34523971       8.64133580       7.72900289
H       -8.30192615      12.39680643       5.19684843
H       -9.33944806      11.61371848       3.97950634
H       -7.62523303      11.22360357       4.04211533
H       -9.66915365      10.58732666       6.22592923
H       -7.91172492      10.19614635       6.28081806
H       -8.52972255       7.14396770       3.51894203
H       -8.99047300       4.19510840       3.50391809
H       -3.69067811       0.70821495       2.77322640
H       -2.31239050      -0.68440861       1.28626449
H        0.39492044       2.61611437       0.70390192
H       -1.03519762       4.03098386       2.13761191
H       -5.07347320       2.29727825       1.66218014
H       -8.32591494       4.30569327       6.74988838
H       -9.42462330       8.22775339       8.60775899
C        6.29850406      -6.17872564      12.14398875
C        6.62603861      -7.12318454      10.99952496
O        5.41514099      -7.36868829      10.28729231
C        5.52602963      -7.79041439       8.99025074
C        4.40730418      -7.47230954       8.21055737
C        4.33731631      -7.82635729       6.85765573
C        3.13409966      -7.47316831       6.10099399
C        2.99219211      -6.39631098       5.31930554
S        4.16812566      -5.20438838       4.91372464
C        3.02299173      -4.29660328       3.95036784
N        3.38530143      -3.25194971       3.29056686
C        2.50393000      -2.50530896       2.49785787
C        1.69222033      -3.06916742       1.50544479
C        0.86500926      -2.26491556       0.71471658
C        0.88132903      -0.88132903       0.88132903
C        1.71354053      -0.29899796       1.83313022
C        2.51813625      -1.11257563       2.63618252
N        1.79279772      -4.86423824       4.02838972
C        1.68664634      -6.04965534       4.69763857
O        0.67005174      -6.72231901       4.76152852
C        5.39925518      -8.51724160       6.27390049
C        6.50819938      -8.86048470       7.05314493
Br       7.92101694      -9.83282443       6.23739817
C        6.57452112      -8.50931876       8.41051598
O        7.64890768      -8.89993528       9.16673544
H        7.18891058      -5.96513315      12.74153728
H        5.52946809      -6.60943307      12.79377173
H        5.89690559      -5.23513328      11.75891305
H        7.00777982      -8.06300402      11.41162570
H        7.37977076      -6.64801171      10.36090686
H        3.58442425      -6.93254848       8.67565956
H        2.28422928      -8.13305781       6.27221240
H        1.71022321      -4.14028117       1.32161509
H        0.23087380      -2.72307950      -0.03970692
H        1.75603056       0.78084173       1.94990701
H        3.18329506      -0.65483800       3.36566033
H        0.98472946      -4.48453001       3.56367212
H        5.35841550      -8.79827345       5.22480764
H        8.23592109      -9.42828816       8.59592643
