129
Properties=species:S:1:pos:R:3 pbc="F F F"
C        0.00000000       0.00000000       0.00000000
C        0.88143045       0.88143045      -0.88143045
C        1.09933968       2.21155541      -0.53368224
C        1.90842307       3.01347535      -1.34489244
C        2.50206469       2.49981896      -2.50238856
C        2.23949412       1.17074308      -2.85544354
C        1.44950250       0.35504794      -2.03914634
N        3.23205795       3.37730757      -3.31246015
C        4.42965101       3.13201390      -3.71092345
N        5.05732715       4.02453787      -4.49794537
C        6.27174072       3.67239855      -4.96938542
O        6.98856525       4.35880328      -5.67181993
C        6.65017558       2.29522150      -4.56408374
S        5.47617808       1.78475896      -3.41855229
C        7.72276678       1.43969261      -5.03420966
H        7.85229626       0.45934200      -4.59140634
C        8.69343811       1.84137678      -6.05177166
C        8.32913289       1.73321695      -7.40244072
C        9.23123544       2.11034356      -8.39510086
O        8.91316439       2.02129328      -9.71806524
C       10.49293177       2.59215298      -8.06890826
C       10.86361010       2.70394686      -6.72928293
C        9.96796975       2.33010953      -5.72247844
Br      10.53937682       2.51265064      -3.91882337
H        0.64041038       2.63792582       0.35473458
H        2.06118642       4.05772366      -1.08309198
H        2.64153182       0.75749940      -3.77695784
H        1.27397493      -0.67890703      -2.32335558
H        4.62822645       4.90447663      -4.73483743
H        7.34549760       1.35861449      -7.67077015
H        7.98512567       1.74896857      -9.80200839
H       11.18321601       2.88612274      -8.85475141
H       11.84944665       3.08900512      -6.48133556
C       -0.88143045      -0.88143045      -0.88143045
C       -1.17084685      -2.18511111      -0.48861936
C       -1.97953252      -2.98713582      -1.30012252
C       -2.50195420      -2.49983699      -2.50248101
C       -2.16778206      -1.19928316      -2.89861551
C       -1.37776928      -0.38249714      -2.08343037
N       -3.23500505      -3.38052219      -3.30629842
C       -4.40333979      -3.10327648      -3.76597210
N       -5.03586183      -4.00221267      -4.54173588
C       -6.21334544      -3.62077036      -5.07940889
O       -6.92945130      -4.30660768      -5.78312947
C       -6.54836748      -2.21286758      -4.74824575
S       -5.40187032      -1.70244512      -3.57517389
C       -7.56257981      -1.33475743      -5.29933182
H       -7.66784845      -0.33166013      -4.90353602
C       -8.50671547      -1.73948901      -6.34038207
C       -8.08243244      -1.70499519      -7.67736294
C       -8.95809253      -2.08697767      -8.69160967
O       -8.58193446      -2.06844622     -10.00214223
C      -10.25186428      -2.50155355      -8.40057518
C      -10.68220853      -2.53988822      -7.07474315
C       -9.81372720      -2.16031005      -6.04652048
Br     -10.46672210      -2.24089258      -4.26323615
H       -0.76797552      -2.59132987       0.43570378
H       -2.18800291      -4.01186644      -1.00213272
H       -2.51306004      -0.80995507      -3.85297395
H       -1.14609205       0.63004695      -2.40237838
H       -4.63574993      -4.90858906      -4.72320151
H       -7.07325388      -1.38341326      -7.91821511
H       -7.64031230      -1.83868565     -10.05710467
H      -10.92105993      -2.80036454      -9.20266569
H      -11.69319192      -2.87269695      -6.85389846
C       -0.88143045       0.88143045       0.88143045
C       -1.46235938       0.35195295       2.03026500
C       -2.26809250       1.16484032       2.83385805
C       -2.50078552       2.50302892       2.50045777
C       -1.93898434       3.00588008       1.32081632
C       -1.11431952       2.20694044       0.52243682
N       -3.38244016       3.23717814       3.30220737
C       -3.08587513       4.38362367       3.80308956
N       -3.99626184       5.02911941       4.55442913
C       -3.67165567       6.27099964       4.97086938
O       -4.35861992       6.98838233       5.67218619
C       -2.35797569       6.71277822       4.43872690
S       -1.64480013       5.33655725       3.69813195
C       -1.74457924       8.02691711       4.42517270
H       -0.75306726       8.14531217       4.00466517
C       -2.36768280       9.21847310       5.00043065
C       -3.31863249       9.91071966       4.23543841
C       -3.93161905      11.04811256       4.75694826
O       -4.86138957      11.74640186       4.04473148
C       -3.61414769      11.51245837       6.02738694
C       -2.67086479      10.83060792       6.79536718
C       -2.04847341       9.68701378       6.28507054
Br      -0.77566183       8.80658282       7.38860618
H       -1.30624504      -0.68805440       2.30541097
H       -2.73775049       0.74440098       3.71985060
H       -2.14489473       4.02557660       1.00551774
H       -0.67406075       2.62367531      -0.37931258
H       -4.88333037       4.60713126       4.77707887
H       -3.57617981       9.55770752       3.24099491
H       -5.04543470      11.27363085       3.21703707
H       -4.10432476      12.39847608       6.42128933
H       -2.43315028      11.19517570       7.79146135
C        0.88143045      -0.88143045       0.88143045
C        1.02892249      -0.58268978       2.23296505
C        1.83712079      -1.39451598       3.03515409
C        2.50148454      -2.50279232       2.49999535
C        2.37106832      -2.76387315       1.13073926
C        1.54794312      -1.97063560       0.32511806
N        3.35904725      -3.22408067       3.33869774
C        3.29477173      -4.50075407       3.47706256
N        4.16524663      -5.11879776       4.29576600
C        4.11967270      -6.46713875       4.32671324
O        4.81206331      -7.18657829       5.02054685
C        3.12922751      -7.01452288       3.36573043
S        2.23624508      -5.67341616       2.76982808
C        2.92642944      -8.37226875       2.89797086
H        2.12271647      -8.57896488       2.20136324
C        3.71906837      -9.51373419       3.35378399
C        4.96743622      -9.74204725       2.75530709
C        5.74702589     -10.81997146       3.16968252
O        6.96589805     -11.07328479       2.61334007
C        5.30625715     -11.67862650       4.16910936
C        4.06732910     -11.45922288       4.77028791
C        3.27478761     -10.38066571       4.36510441
Br       1.59964678     -10.14051819       5.23068587
H        0.53227167       0.27947437       2.67080431
H        1.96772182      -1.14813961       4.08614064
H        2.91726734      -3.58505694       0.67366478
H        1.44720269      -2.20279599      -0.73157520
H        4.82887080      -4.59519698       4.84347272
H        5.32384061      -9.07776262       1.97327901
H        7.18405645     -10.35952054       1.99252563
H        5.92806063     -12.51212952       4.48390001
H        3.73235836     -12.13050460       5.55692437
