153
Properties=species:S:1:pos:R:3 pbc="F F F"
C        0.00000000       0.00000000       0.00000000
C        7.64970073       9.44444382      -4.15445903
O        8.50908727       9.09397098      -5.23387680
C        8.55710891       7.76456464      -5.55399246
C        8.30774637       6.71114357      -4.66980329
C        8.40195090       5.38054844      -5.10826201
C        8.12774874       4.27881961      -4.17601464
C        6.90486112       3.84115360      -3.85229686
S        5.38515674       4.46349060      -4.38277841
C        4.49422435       3.32447371      -3.40529477
N        3.21086492       3.37897672      -3.32131954
C        2.48740917       2.51276287      -2.49451552
C        1.45718989       1.75268727      -3.05528800
C        0.65339957       0.93677827      -2.25440224
C        0.88146871       0.88146871      -0.88146871
C        1.89612474       1.64185466      -0.30373581
C        2.68459885       2.46837542      -1.10865622
N        5.34665694       2.46290256      -2.79098704
C        6.68810141       2.68811973      -2.93577737
O        7.56170392       2.05860965      -2.36417296
C        8.74995655       5.11867752      -6.43949966
O        8.82620156       3.81357169      -6.85489744
C        9.01116759       6.17327330      -7.31710102
C        8.92484226       7.49151286      -6.87322297
H        7.58766583      10.53658683      -4.12053764
H        8.05777312       9.10691975      -3.19699554
H        6.63773862       9.05597369      -4.31222574
H        8.05207178       6.90361789      -3.63238348
H        9.01121801       3.77837736      -3.78448749
H        1.26453263       1.81734202      -4.12375149
H       -0.15203693       0.36625263      -2.70913101
H        2.06607798       1.61676247       0.76950976
H        3.44037512       3.09605118      -0.64337701
H        5.02947505       1.72057693      -2.19023328
H        9.05430500       3.82110043      -7.80223547
H        9.12936270       8.31808965      -7.54918123
C        9.36836406       5.92038419      -8.68898213
C        9.66751611       5.70858956      -9.83793256
Br      10.15121966       5.36613555     -11.69568823
C       -4.14588736      -9.42746803      -7.67524819
O       -5.54055195      -9.70132749      -7.59505561
C       -6.21644943      -9.07653125      -6.58268533
C       -5.65492267      -8.66212874      -5.37164183
C       -6.45230074      -8.04235745      -4.39610316
C       -5.85281278      -7.59964385      -3.13012636
C       -5.17354129      -6.45781950      -2.96695080
S       -4.79243168      -5.27479070      -4.16420337
C       -3.89866527      -4.30157207      -3.02375549
N       -3.25708451      -3.25176209      -3.40231458
C       -2.48621173      -2.49631759      -2.51215824
C       -2.73898710      -1.12626738      -2.39991068
C       -1.94115755      -0.31641106      -1.58701147
C       -0.88146871      -0.88146871      -0.88146871
C       -0.60738101      -2.24321048      -0.99112371
C       -1.39900277      -3.04339388      -1.81923383
N       -3.98861484      -4.83475121      -1.77718048
C       -4.62702542      -6.03756137      -1.64741172
O       -4.69605154      -6.67679159      -0.61164341
C       -7.81607679      -7.84492738      -4.64712957
O       -8.57866699      -7.22742071      -3.68858299
C       -8.37674908      -8.27185921      -5.85293362
C       -7.58168385      -8.89458816      -6.81330608
H       -3.77674570      -9.85572216      -8.61232245
H       -3.60017190      -9.90539262      -6.85612389
H       -3.95530620      -8.34911038      -7.70152149
H       -4.60217634      -8.82424955      -5.16164726
H       -6.04305726      -8.25137447      -2.27965112
H       -3.55092400      -0.68288264      -2.97181950
H       -2.14592531       0.74915124      -1.52657264
H        0.22979939      -2.68563489      -0.45749518
H       -1.14737350      -4.09419385      -1.93823596
H       -3.55092143      -4.41535937      -0.97400446
H       -9.48509381      -7.15392662      -4.03862048
H       -8.01086872      -9.23244121      -7.75332365
C       -9.77667195      -8.07450557      -6.12655286
C      -10.94910736      -7.90922189      -6.35570897
Br     -12.84483625      -7.64197217      -6.72623502
C      -10.15646778       5.93555098       5.15658482
O      -10.01112684       6.30109626       6.52471194
C       -8.90833994       5.80354686       7.16377921
C       -8.24175078       4.62291253       6.82402992
C       -7.12542659       4.20127420       7.56406057
C       -6.42332431       2.96499799       7.19426068
C       -5.51833773       2.86715321       6.21282064
S       -4.99500541       4.10557061       5.13084973
C       -3.94028075       3.01171034       4.27200174
N       -3.30524218       3.38837587       3.21754314
C       -2.50470613       2.50680524       2.48317619
C       -1.17280139       2.85322612       2.23913765
C       -0.35872241       2.04503013       1.44082753
C       -0.88146871       0.88146871       0.88146871
C       -2.21051464       0.52711410       1.10408647
C       -3.02309066       1.34915923       1.88938059
N       -3.93971328       1.79133451       4.86949874
C       -4.80309052       1.59645159       5.91245641
O       -4.97962024       0.52956753       6.47529877
C       -6.68718751       4.97387431       8.64707191
O       -5.58808771       4.55417368       9.35240931
C       -7.36329667       6.14626641       8.99197883
C       -8.47614153       6.55441502       8.25902154
H      -10.97658154       6.52840817       4.73980059
H      -10.42680931       4.88022784       5.05465126
H       -9.25075707       6.16881075       4.58637024
H       -8.58282591       4.00949148       5.99575576
H       -6.64716790       2.10479786       7.82211710
H       -0.77434861       3.77546909       2.65580845
H        0.66949957       2.34146679       1.25137949
H       -2.62859277      -0.36983538       0.65457330
H       -4.07157953       1.09185629       2.01636750
H       -3.38521714       1.02196576       4.53310235
H       -5.41520497       5.21660559      10.04583033
H       -9.00976353       7.46420440       8.52266566
C       -6.92399942       6.95222794      10.10150302
C       -6.55608797       7.62722072      11.03072954
Br      -5.96120627       8.71862695      12.53321022
C        7.04876364      -4.40992237       9.78991757
O        7.11144023      -5.82802815       9.89746666
C        6.26455101      -6.52857784       9.08253715
C        5.04627880      -6.05628022       8.58613422
C        4.25012814      -6.87323632       7.76739690
C        2.97609811      -6.36602407       7.24046081
C        2.85650891      -5.57328498       6.16851770
S        4.11998142      -4.92061493       5.19082939
C        2.99160423      -4.04407105       4.18831755
N        3.40091202      -3.24052894       3.26972022
C        2.51069715      -2.48461560       2.49937481
C        2.58110983      -2.57750031       1.10655502
C        1.76973334      -1.77983949       0.29500725
C        0.88146871      -0.88146871       0.88146871
C        0.80678388      -0.76682365       2.26810768
C        1.63345786      -1.55550497       3.07266765
N        1.71477353      -4.33493081       4.55084219
C        1.53371394      -5.12695026       5.65133432
O        0.45062078      -5.38715341       6.14671235
C        4.68728985      -8.16657299       7.45427090
O        3.90336686      -8.94763532       6.64366851
C        5.89891727      -8.64014446       7.96248019
C        6.68007005      -7.82749426       8.78201378
H        7.88068155      -3.99597423      10.36813452
H        6.12130645      -4.02020359      10.22017837
H        7.16926826      -4.08626809       8.75040171
H        4.69175770      -5.06088088       8.83543457
H        2.08932481      -6.72704172       7.75771632
H        3.29373512      -3.26112067       0.65077035
H        1.85199831      -1.85719900      -0.78585060
H        0.12891195      -0.05399559       2.73042315
H        1.60480076      -1.42369490       4.15130765
H        0.91458988      -3.93950511       4.08619027
H        4.36829395      -9.79429765       6.51504930
H        7.62310384      -8.18950437       9.18402537
C        6.36280614      -9.96666974       7.64825450
C        6.75131308     -11.07763467       7.38509048
Br       7.37949593     -12.87397099       6.95957652
