145
Properties=species:S:1:pos:R:3 pbc="F F F"
C        0.00000000       0.00000000       0.00000000
C        6.05214206       9.26288480      -5.56455222
O        6.39734225       9.26928113      -6.94641648
C        5.82964512       8.29156078      -7.72616138
C        4.83579069       7.39883529      -7.31919380
C        4.34177050       6.42241866      -8.19964367
C        3.25463041       5.50409484      -7.81439069
C        3.11932468       4.80574128      -6.67687086
S        4.19365703       4.70682400      -5.33124373
C        3.09516175       3.69659854      -4.42238950
N        3.38451467       3.29785332      -3.23427623
C        2.51097763       2.49127323      -2.49453155
C        2.07779752       2.94319019      -1.24400208
C        1.26417350       2.14365017      -0.43588988
C        0.88168800       0.88168800      -0.88168800
C        1.31427591       0.40962755      -2.11981445
C        2.14031381       1.20827242      -2.91576240
N        1.97675031       3.44611080      -5.15361762
C        1.91290953       3.97377479      -6.41142526
O        0.99128684       3.79088885      -7.19389174
C        4.82233716       6.38683278      -9.51607645
C        5.80137713       7.29102776      -9.93689118
Br       6.40358594       7.20801710     -11.73228627
C        6.30339310       8.23444720      -9.04232364
O        7.26484719       9.13017936      -9.43696097
H        6.63526003      10.04609904      -5.07097874
H        6.31133409       8.30779848      -5.09506902
H        4.99253165       9.49920263      -5.42432566
H        4.41963691       7.46330971      -6.31995758
H        2.47327727       5.40965372      -8.56975326
H        2.39826482       3.91868994      -0.88610590
H        0.95145349       2.50939354       0.53825163
H        1.03391507      -0.58313180      -2.46310537
H        2.51239048       0.81399179      -3.85799379
H        1.21821166       2.88256885      -4.80848063
H        4.43031269       5.65588163     -10.22118205
H        7.44539582       9.68151318      -8.65142602
C       -9.18137507      -5.26941974      -6.42878427
O       -9.29797091      -6.67284474      -6.64222421
C       -8.46319123      -7.47777944      -5.90639662
C       -7.63000391      -7.05565859      -4.86815728
C       -6.80001908      -7.96779484      -4.19601891
C       -5.95243431      -7.55994829      -3.06073334
C       -5.15620528      -6.48476320      -2.96096833
S       -4.81914469      -5.27225109      -4.14032897
C       -3.82761714      -4.35330823      -3.03322442
N       -3.28320310      -3.24383140      -3.38960972
C       -2.48976890      -2.49653184      -2.51048167
C       -2.84878955      -1.17128624      -2.24491400
C       -2.04968094      -0.36180502      -1.43222758
C       -0.88168800      -0.88168800      -0.88168800
C       -0.50149605      -2.19647149      -1.14575037
C       -1.29730437      -2.99527053      -1.97177373
N       -3.75942901      -4.98548493      -1.83156480
C       -4.41763284      -6.17519318      -1.70528355
O       -4.40329334      -6.87208958      -0.70068451
C       -6.85565066      -9.32430522      -4.54529051
C       -7.70300752      -9.75753959      -5.56874896
Br      -7.74970672     -11.60532738      -5.98885521
C       -8.49811344      -8.83532938      -6.24672112
O       -9.33603276      -9.24161785      -7.25433691
H       -9.85161110      -4.76762975      -7.13309695
H       -8.16295542      -4.92043402      -6.63081214
H       -9.49989860      -4.99921498      -5.41694636
H       -7.62967430      -6.01720406      -4.55602584
H       -6.00978357      -8.23620895      -2.20669174
H       -3.74796329      -0.75880957      -2.69628780
H       -2.34061753       0.66927013      -1.25124800
H        0.42002140      -2.60023287      -0.73367718
H       -0.96927364      -4.00353230      -2.21157012
H       -3.23662189      -4.61811500      -1.05452425
H       -6.24113568     -10.05039493      -4.01584575
H       -9.78413451      -8.43084872      -7.56335178
C       -7.57013775       4.71615161       8.59328971
O       -8.48595048       5.77910324       8.34798615
C       -8.67769541       6.13439956       7.03527232
C       -8.17837613       5.45103862       5.92440503
C       -8.42147679       5.91951513       4.62284090
C       -7.95380115       5.18804641       3.43126838
C       -6.74546368       4.65023894       3.20623420
S       -5.33790132       4.69173101       4.20209242
C       -4.43175076       3.67537623       3.10702280
N       -3.22233900       3.32491544       3.36938977
C       -2.48724294       2.50779675       2.50174271
C       -1.96594745       1.30651455       2.99252779
C       -1.16465712       0.49150911       2.18754731
C       -0.88168800       0.88168800       0.88168800
C       -1.38218451       2.08186066       0.37967275
C       -2.16986603       2.89924580       1.19523680
N       -5.19344415       3.35582266       2.02721192
C       -6.45623931       3.87217975       1.96969052
O       -7.23112734       3.70647442       1.03846567
C       -9.21988586       7.05830730       4.44705323
C       -9.74103827       7.73503321       5.55322458
Br     -10.82715920       9.25997212       5.25675800
C       -9.46553184       7.27501927       6.83961283
O       -9.96806643       7.92614453       7.93777656
H       -7.47174848       4.60346931       9.67712002
H       -6.57794784       4.94605985       8.19019389
H       -7.95117037       3.77075648       8.19413308
H       -7.61108847       4.53627041       6.05554532
H       -8.71446741       5.08158164       2.65663520
H       -2.16670675       1.01552261       4.02083130
H       -0.75851327      -0.43041826       2.59450039
H       -1.14736460       2.39969896      -0.63317493
H       -2.51621229       3.85585780       0.81230597
H       -4.85570893       2.77550062       1.27805159
H       -9.44325347       7.41947317       3.44464972
H       -9.64907943       7.41979768       8.70945790
C        4.71817687      -7.56250901       8.59889320
O        6.04950918      -7.46738618       9.09614450
C        6.75491878      -6.34032553       8.75212298
C        6.23580902      -5.22230540       8.09570537
C        7.05872533      -4.13030332       7.77480417
C        6.52570488      -2.91511331       7.13229774
C        5.69100180      -2.82512134       6.08581368
S        5.02343609      -4.08843564       5.11985302
C        4.06249253      -2.97356226       4.17809500
N        3.28031400      -3.39034360       3.24598662
C        2.50248490      -2.50725160       2.48704591
C        1.11557481      -2.68517866       2.46423632
C        0.30266402      -1.87599821       1.66505131
C        0.88168800      -0.88168800       0.88168800
C        2.26344682      -0.69818630       0.88208480
C        3.07147728      -1.52110503       1.67176632
N        4.28367927      -1.69839673       4.59440274
C        5.18521413      -1.51030546       5.60259000
O        5.51513828      -0.41825786       6.04267129
C        8.40370111      -4.15206059       8.16948470
C        8.92509451      -5.25831904       8.84588252
Br      10.74652546      -5.22761464       9.36974921
C        8.10288904      -6.34711453       9.13016037
O        8.59672298      -7.44213359       9.79313095
H        4.32037118      -8.53812161       8.89384501
H        4.69839055      -7.51086782       7.50494322
H        4.07790033      -6.79422187       9.04393773
H        5.18227938      -5.17770384       7.84292097
H        6.86706096      -1.98892937       7.59669392
H        0.66717598      -3.47885775       3.05702693
H       -0.77106655      -2.04166624       1.65199572
H        2.72136497       0.06428592       0.25680959
H        4.15131642      -1.40327964       1.62978000
H        3.82425735      -0.90525531       4.17974848
H        9.04972710      -3.30241797       7.95523129
H        7.84258175      -8.05653768       9.87921558
