153
Properties=species:S:1:pos:R:3 pbc="F F F"
C        0.00000000       0.00000000       0.00000000
C        6.05214206       9.26288480      -5.56455222
O        6.39734225       9.26928113      -6.94641648
C        5.82964512       8.29156078      -7.72616138
C        4.83579069       7.39883529      -7.31919380
C        4.34177050       6.42241866      -8.19964367
C        3.25463041       5.50409484      -7.81439069
C        3.11932468       4.80574128      -6.67687086
S        4.19365703       4.70682400      -5.33124373
C        3.09516175       3.69659854      -4.42238950
N        3.38451467       3.29785332      -3.23427623
C        2.51097763       2.49127323      -2.49453155
C        2.07779752       2.94319019      -1.24400208
C        1.26417350       2.14365017      -0.43588988
C        0.88168800       0.88168800      -0.88168800
C        1.31427591       0.40962755      -2.11981445
C        2.14031381       1.20827242      -2.91576240
N        1.97675031       3.44611080      -5.15361762
C        1.91290953       3.97377479      -6.41142526
O        0.99128684       3.79088885      -7.19389174
C        4.82233716       6.38683278      -9.51607645
C        5.80137713       7.29102776      -9.93689118
C        6.30339310       8.23444720      -9.04232364
O        7.26484719       9.13017936      -9.43696097
H        6.63526003      10.04609904      -5.07097874
H        6.31133409       8.30779848      -5.09506902
H        4.99253165       9.49920263      -5.42432566
H        4.41963691       7.46330971      -6.31995758
H        2.47327727       5.40965372      -8.56975326
H        2.39826482       3.91868994      -0.88610590
H        0.95145349       2.50939354       0.53825163
H        1.03391507      -0.58313180      -2.46310537
H        2.51239048       0.81399179      -3.85799379
H        1.21821166       2.88256885      -4.80848063
H        4.43031269       5.65588163     -10.22118205
H        7.44539582       9.68151318      -8.65142602
C        6.25886713       7.22796567     -11.30082888
C        6.64201501       7.17515117     -12.44312671
Br       7.26153272       7.08975459     -14.29012569
C       -8.99762520      -4.98024115      -6.90171272
O       -9.26441067      -6.37766096      -6.97096823
C       -8.62372044      -7.17188589      -6.05176095
C       -7.86470145      -6.71833276      -4.97078558
C       -7.23507712      -7.62568313      -4.10307256
C       -6.47441945      -7.17566411      -2.92303238
C       -5.56600435      -6.19151008      -2.84442239
S       -4.95115225      -5.18097540      -4.09959711
C       -3.98153006      -4.24655593      -2.98606380
N       -3.26646933      -3.25769351      -3.39248138
C       -2.48831587      -2.49902708      -2.50943946
C       -2.70601381      -1.11937949      -2.43959649
C       -1.90711490      -0.30834619      -1.62825245
C       -0.88168800      -0.88168800      -0.88168800
C       -0.64197545      -2.25318225      -0.94856022
C       -1.43480433      -3.05571804      -1.77382626
N       -4.12673377      -4.72711404      -1.72263092
C       -4.93847795      -5.81122725      -1.54840437
O       -5.12299526      -6.37426289      -0.47880928
C       -7.42081372      -9.00060292      -4.30382976
C       -8.19683316      -9.46169190      -5.37077101
C       -8.79016225      -8.54901010      -6.24099160
O       -9.55526535      -8.98259861      -7.29412357
H       -9.51749907      -4.49921374      -7.73562499
H       -7.92747521      -4.77446656      -7.01225982
H       -9.39017158      -4.55194258      -5.97394578
H       -7.76914401      -5.65549815      -4.77826204
H       -6.71032551      -7.72922760      -2.01313114
H       -3.49084509      -0.66936497      -3.04285059
H       -2.08508977       0.76313705      -1.60064268
H        0.17033681      -2.70199919      -0.38222626
H       -1.21087651      -4.11618200      -1.85731755
H       -3.65158303      -4.32575988      -0.93191822
H       -6.96452057      -9.71845783      -3.62439797
H       -9.86136248      -8.17215794      -7.74481460
C       -8.37194865     -10.88164573      -5.53406730
C       -8.51860788     -12.07085706      -5.67082795
Br      -8.75574344     -13.99371121      -5.89195834
C       -7.08204709       4.89223114       8.90530085
O       -8.15020859       5.80214691       8.66068436
C       -8.53583252       5.95956468       7.35197009
C       -8.08278443       5.19955920       6.27147615
C       -8.53240766       5.46399948       4.96742568
C       -8.11353687       4.64250090       3.81707816
C       -6.87945588       4.22226058       3.50022036
S       -5.38430875       4.55398735       4.29342865
C       -4.48552298       3.51476293       3.21386387
N       -3.21878788       3.34246253       3.35539381
C       -2.48824869       2.50936898       2.49916474
C       -1.76249840       1.44982906       3.05266233
C       -0.95985015       0.63455188       2.24931151
C       -0.88168800       0.88168800       0.88168800
C       -1.58809861       1.94106324       0.31455607
C       -2.37643861       2.76162034       1.12628968
N       -5.31809323       2.97239196       2.28599355
C       -6.63544499       3.32855834       2.33410625
O       -7.48394223       2.95549212       1.53663309
C       -9.48681565       6.47110908       4.76732167
C       -9.96104355       7.22146467       5.84678786
C       -9.48234552       6.96710635       7.13071207
O       -9.93583113       7.69334505       8.20281135
H       -6.84614184       4.93331528       9.97288068
H       -6.18098840       5.18015857       8.35305462
H       -7.38032599       3.86557565       8.67015829
H       -7.39022046       4.38076330       6.43192044
H       -8.93775303       4.34974927       3.16518194
H       -1.80442701       1.27376269       4.12487096
H       -0.39341206      -0.17396268       2.70314603
H       -1.51433816       2.14948561      -0.74993513
H       -2.88573243       3.61427650       0.68436713
H       -4.99606111       2.34230389       1.57089614
H       -9.86873798       6.67098289       3.76765550
H       -9.46735522       7.33149273       8.97948706
C      -10.94997906       8.23847522       5.59920740
C      -11.77821256       9.09022155       5.39185878
Br     -13.11739607      10.46742334       5.05659358
C        4.68223278      -7.71567026       8.48167603
O        5.98817057      -7.58892370       9.03594560
C        6.66009639      -6.42213436       8.76513653
C        6.12201271      -5.29948677       8.13232031
C        6.91178035      -4.16405192       7.88800056
C        6.35531675      -2.94549720       7.27230199
C        5.55914119      -2.84571690       6.19707872
S        4.98168090      -4.09383887       5.15620497
C        4.01373384      -2.97998961       4.22042634
N        3.28612494      -3.38877399       3.24174529
C        2.50328136      -2.50661671       2.48688434
C        1.12669501      -2.73748329       2.40081149
C        0.31339989      -1.92885462       1.60145902
C        0.88168800      -0.88168800       0.88168800
C        2.25377983      -0.64454608       0.94539201
C        3.06313162      -1.46669561       1.73452140
N        4.16650294      -1.71512977       4.69484603
C        5.01960026      -1.53310331       5.74540602
O        5.28744623      -0.44779098       6.24083022
C        8.24009363      -4.14929942       8.33585334
C        8.77919935      -5.26092669       8.98917003
C        7.99144101      -6.39164422       9.19707871
O        8.50309862      -7.49258038       9.83630852
H        4.31318433      -8.71724864       8.72190484
H        4.70309063      -7.62043444       7.39067651
H        3.99438083      -6.99168510       8.92999400
H        5.07821423      -5.28581787       7.83887209
H        6.64036650      -2.02632662       7.78599113
H        0.68811300      -3.57149427       2.94345338
H       -0.75138349      -2.13565053       1.53832837
H        2.70440231       0.15999918       0.36948551
H        4.13810680      -1.30519136       1.74107789
H        3.69177351      -0.92433760       4.29315002
H        8.85893569      -3.26707856       8.18136212
H        7.77175903      -8.13894990       9.86762609
C       10.14423169      -5.19978411       9.44364589
C       11.28744627      -5.14857721       9.82426941
Br      13.13592756      -5.06577997      10.43970547
