166
Properties=species:S:1:pos:R:3 pbc="F F F"
C        6.96204608      10.17278883      -6.47445624
O        7.30724628      10.17918515      -7.85632051
C        6.73954915       9.20146480      -8.63606541
C        5.74569472       8.30873932      -8.22909783
C        5.25167453       7.33232268      -9.10954769
C        4.16453443       6.41399886      -8.72429471
C        4.02922870       5.71564531      -7.58677488
S        5.10356105       5.61672802      -6.24114775
C        4.00506578       4.60650256      -5.33229352
N        4.29441869       4.20775735      -4.14418026
C        3.42088165       3.40117726      -3.40443557
C        2.98770154       3.85309422      -2.15390610
C        2.17407752       3.05355419      -1.34579390
C        1.79159202       1.79159202      -1.79159202
C        2.22417994       1.31953158      -3.02971848
C        3.05021784       2.11817644      -3.82566642
N        2.88665433       4.35601483      -6.06352165
C        2.82281356       4.88367882      -7.32132928
O        1.90119087       4.70079288      -8.10379576
C        5.73224119       7.29673681     -10.42598047
C        6.71128115       8.20093179     -10.84679520
Br       7.31348997       8.11792113     -12.64219030
C        7.21329713       9.14435122      -9.95222766
O        8.17475122      10.04008339     -10.34686499
H        7.54516406      10.95600306      -5.98088276
H        7.22123811       9.21770251      -6.00497304
H        5.90243567      10.40910665      -6.33422968
H        5.32954093       8.37321374      -7.22986160
H        3.38318129       6.31955774      -9.47965728
H        3.30816885       4.82859396      -1.79600992
H        1.86135751       3.41929757      -0.37165240
H        1.94381909       0.32677223      -3.37300940
H        3.42229450       1.72389581      -4.76789781
H        2.12811568       3.79247288      -5.71838465
H        5.34021671       6.56578566     -11.13108607
H        8.35529984      10.59141720      -9.56133004
C      -10.08902092      -6.17400155      -7.34626868
O      -10.20792434      -7.57760949      -7.55721810
C       -9.37613236      -8.38272989      -6.81821711
C       -8.54413883      -7.96020994      -5.77918308
C       -7.71722628      -8.87264569      -5.10367293
C       -6.87105084      -8.46423968      -3.96753750
C       -6.07293322      -7.39040598      -3.86830969
S       -5.73124081      -6.18083728      -5.04935874
C       -4.74007764      -5.26167007      -3.94211415
N       -4.19282488      -4.15394188      -4.29958954
C       -3.39964596      -3.40647600      -3.42037253
C       -3.75660969      -2.08002573      -3.15806644
C       -2.95750725      -1.27051823      -2.34540014
C       -1.79159202      -1.79159202      -1.79159202
C       -1.41343970      -3.10761827      -2.05237202
C       -2.20919534      -3.90647588      -2.87838948
N       -4.67544082      -5.89164649      -2.73910350
C       -5.33619322      -7.07983175      -2.61179668
O       -5.32514897      -7.77480550      -1.60582504
C       -7.77481186     -10.22972052      -5.45042609
C       -8.62102501     -10.66329788      -6.47468525
Br      -8.67049370     -12.51180289      -6.89130480
C       -9.41302797      -9.74086701      -7.15598104
O      -10.24978203     -10.14748611      -8.16443145
H      -10.75691862      -5.67228203      -8.05284923
H       -9.06953752      -5.82737960      -7.54699654
H      -10.40897738      -5.90121961      -6.33557501
H       -8.54239981      -6.92115476      -5.46906170
H       -6.93136371      -9.13873096      -3.11230166
H       -4.65410687      -1.66668576      -3.61198010
H       -3.24679386      -0.23853305      -2.16698057
H       -0.49350594      -3.51236242      -1.63773236
H       -1.88265669      -4.91583357      -3.11559786
H       -4.15342703      -5.52378305      -1.96176312
H       -7.16273150     -10.95597014      -4.91838680
H      -10.69571215      -9.33645204      -8.47588289
C       -8.53932822       5.61114623       9.45881669
O       -9.43494384       6.69174599       9.21606211
C       -9.60093203       7.06991538       7.90623195
C       -9.09495815       6.39591113       6.79266258
C       -9.31073876       6.88785845       5.49494769
C       -8.83588561       6.16747618       4.29946622
C       -7.63254304       5.61453590       4.08456995
S       -6.24008101       5.61908463       5.10227118
C       -5.33268719       4.60563288       4.00554179
N       -4.13295497       4.23255585       4.28084547
C       -3.39705819       3.41747511       3.41196118
C       -2.90176981       2.20093999       3.89199205
C       -2.10063128       1.38599398       3.08680035
C       -1.79159202       1.79159202       1.79159202
C       -2.26592954       3.00686724       1.30063321
C       -3.05358990       3.82382075       2.11665005
N       -6.08236873       4.31437852       2.90944356
C       -7.33611319       4.85101872       2.84068974
O       -8.09894112       4.71151757       1.89532081
C      -10.08889844       8.04140659       5.32465344
C      -10.61672874       8.70918653       6.43309287
Br     -11.67478556      10.25507766       6.14373817
C      -10.36818642       8.22542976       7.71625983
O      -10.87766933       8.86744911       8.81658116
H       -8.45943928       5.48046313      10.54214747
H       -7.53763698       5.83179520       9.07448147
H       -8.92849579       4.67794518       9.03933104
H       -8.54376329       5.47058833       6.91826466
H       -9.58601458       6.08459695       3.51178480
H       -3.12281577       1.89746112       4.91249584
H       -1.71491667       0.45180537       3.48558545
H       -2.01066117       3.33642404       0.29651551
H       -3.37936430       4.79139524       1.74332859
H       -5.74196533       3.74037927       2.15662861
H      -10.29121132       8.42120743       4.32466969
H      -10.57840251       8.34453647       9.58510811
C        5.61433104      -8.52615529       9.46880482
O        6.93721499      -8.41963902       9.98589792
C        7.63146724      -7.27825056       9.66736156
C        7.10587314      -6.15842511       9.01923361
C        7.91778089      -5.05079067       8.72497334
C        7.37672744      -3.83420065       8.09189992
C        6.55536483      -3.74110208       7.03518198
S        5.91892916      -4.99986905       6.04263861
C        4.95556742      -3.88529379       5.10300066
N        4.19223095      -4.29974614       4.15437920
C        3.41266862      -3.41693871       3.39688715
C        2.02883020      -3.61364748       3.35222418
C        1.21578222      -2.80465834       2.55298505
C        1.79159202      -1.79159202       1.79159202
C        3.17051142      -1.58906720       1.81385137
C        3.97900332      -2.41172636       2.60333102
N        5.15312805      -2.61314689       5.53991587
C        6.03794751      -2.42675805       6.56311609
O        6.34645839      -1.33652608       7.02279503
C        9.25735600      -5.05950873       9.13809375
C        9.78479309      -6.16782278       9.80639227
Br      11.59821506      -6.11932298      10.35606334
C        8.97405647      -7.27172908      10.06409046
O        9.47396744      -8.36899831      10.71873385
H        5.22618157      -9.51119445       9.74467386
H        5.60891928      -8.45949266       8.37550172
H        4.95728947      -7.77307654       9.91540599
H        6.05541057      -6.12483123       8.75237447
H        7.69865300      -2.90998275       8.57376057
H        1.58344282      -4.42165306       3.92767685
H        0.14475677      -2.98492598       2.52262473
H        3.62630105      -0.81167667       1.20562299
H        5.05756490      -2.27843780       2.57808543
H        4.68841971      -1.82069621       5.12985729
H        9.89432679      -4.19811952       8.94464213
H        8.72737963      -8.99489298      10.78577447
C       -0.00445707       0.01189536      -1.78238275
H       -0.66409135       0.67374010      -2.43557963
H        0.65740317      -0.63156657      -2.45157240
C       -0.90989263      -0.90692880      -0.91072765
C        0.90977584       0.90977584      -0.90977584
C       -0.00465871       1.77757030       0.00794375
H       -0.66225468       2.44313916      -0.64384735
H        0.64322798       2.43503045       0.67728295
C       -1.78241447       0.00034974      -0.00472694
H       -2.45427497      -0.65498947       0.64260836
H       -2.43311707       0.67328779      -0.65473579
C       -0.91132561       0.90220522       0.91563759
C       -0.01476271      -0.02253852       1.78660255
H       -0.67934791      -0.69751639       2.42135241
H        0.63392994       0.61504881       2.47327442
C        0.01484550      -1.77751727      -0.01636693
H        0.67870853      -2.42144646      -0.68295456
H       -0.62264859      -2.45592969       0.64226336
C        1.78714474       0.01002794       0.00389507
H        2.44202412       0.67113390       0.66197326
H        2.45385902      -0.65136977      -0.64189061
C        0.91606151      -0.90478549       0.90901405
