174
Properties=species:S:1:pos:R:3 pbc="F F F"
C        6.96204608      10.17278883      -6.47445624
O        7.30724628      10.17918515      -7.85632051
C        6.73954915       9.20146480      -8.63606541
C        5.74569472       8.30873932      -8.22909783
C        5.25167453       7.33232268      -9.10954769
C        4.16453443       6.41399886      -8.72429471
C        4.02922870       5.71564531      -7.58677488
S        5.10356105       5.61672802      -6.24114775
C        4.00506578       4.60650256      -5.33229352
N        4.29441869       4.20775735      -4.14418026
C        3.42088165       3.40117726      -3.40443557
C        2.98770154       3.85309422      -2.15390610
C        2.17407752       3.05355419      -1.34579390
C        1.79159202       1.79159202      -1.79159202
C        2.22417994       1.31953158      -3.02971848
C        3.05021784       2.11817644      -3.82566642
N        2.88665433       4.35601483      -6.06352165
C        2.82281356       4.88367882      -7.32132928
O        1.90119087       4.70079288      -8.10379576
C        5.73224119       7.29673681     -10.42598047
C        6.71128115       8.20093179     -10.84679520
C        7.21329713       9.14435122      -9.95222766
O        8.17475122      10.04008339     -10.34686499
H        7.54516406      10.95600306      -5.98088276
H        7.22123811       9.21770251      -6.00497304
H        5.90243567      10.40910665      -6.33422968
H        5.32954093       8.37321374      -7.22986160
H        3.38318129       6.31955774      -9.47965728
H        3.30816885       4.82859396      -1.79600992
H        1.86135751       3.41929757      -0.37165240
H        1.94381909       0.32677223      -3.37300940
H        3.42229450       1.72389581      -4.76789781
H        2.12811568       3.79247288      -5.71838465
H        5.34021671       6.56578566     -11.13108607
H        8.35529984      10.59141720      -9.56133004
C        7.16877116       8.13786970     -12.21073291
C        7.55191903       8.08505519     -13.35303074
Br       8.17143674       7.99965861     -15.20002972
C       -7.13230087      -6.33337287     -10.14361741
O       -8.41103875      -6.94165158      -9.99006161
C       -9.06280193      -6.71087821      -8.80339922
C       -8.65594855      -5.81748620      -7.81009711
C       -9.39303952      -5.67776320      -6.62274217
C       -9.01748264      -4.70284951      -5.58249586
C       -7.80181736      -4.46058068      -5.06925085
S       -6.30470055      -5.24581121      -5.41092506
C       -5.40698453      -4.17057920      -4.36629813
N       -4.13201508      -4.27875767      -4.23558354
C       -3.40106345      -3.42085812      -3.40457290
C       -2.35524717      -2.67799589      -3.96145880
C       -1.54975885      -1.86314195      -3.16052481
C       -1.79159202      -1.79159202      -1.79159202
C       -2.82150515      -2.53473882      -1.21718601
C       -3.61301245      -3.35930091      -2.02174735
N       -6.24824466      -3.27790542      -3.78004073
C       -7.57895085      -3.38010743      -4.06876337
O       -8.45063170      -2.67653458      -3.57861322
C      -10.57780106      -6.41065769      -6.46649972
C      -11.00276963      -7.29060935      -7.46562916
C      -10.24413161      -7.44069565      -8.62504876
O      -10.64503855      -8.29983611      -9.61682494
H       -6.71552444      -6.66837212     -11.09815332
H       -6.44526708      -6.64798938      -9.35065720
H       -7.21940462      -5.24290988     -10.18345750
H       -7.77264056      -5.20536209      -7.95461362
H       -9.85743730      -4.11469878      -5.21026024
H       -2.15136653      -2.75460600      -5.02680020
H       -0.73373220      -1.30607065      -3.61250463
H       -3.00119693      -2.49680243      -0.14560135
H       -4.38269994      -3.97204802      -1.55934017
H       -5.92790241      -2.56965249      -3.14141831
H      -11.17768689      -6.29380666      -5.56559489
H       -9.96660149      -8.22610844     -10.31533716
C      -12.23174257      -8.01524983      -7.27038136
C      -13.26100740      -8.62213623      -7.10686133
Br     -14.92524158      -9.60342021      -6.84246328
C       -8.48390849       9.50034432       5.62503834
O       -8.38632211      10.00182505       6.95460478
C       -7.25616218       9.66323659       7.65768060
C       -6.13773969       9.00859287       7.13719930
C       -5.04235886       8.69336960       7.95781644
C       -3.82684982       8.05288325       7.42309494
C       -3.73622260       7.00419682       6.59122947
S       -4.99863411       6.03252366       5.93027906
C       -3.88381903       5.09122108       4.96882175
N       -4.30014476       4.15556528       4.19064626
C       -3.41710975       3.39693596       3.41244877
C       -3.59907258       3.36948270       2.02614659
C       -2.78993285       2.57028652       1.21320624
C       -1.79159202       1.79159202       1.79159202
C       -1.60400331       1.79663390       3.17279278
C       -2.42686745       2.58627151       3.98092174
N       -2.60924589       5.51195609       5.18498883
C       -2.42148081       6.52336754       6.08297330
O       -1.32977273       6.96765669       6.40835009
C       -5.06130667       9.09197501       9.30167680
C       -6.16802013       9.76664035       9.82434766
C       -7.26008358      10.04525220       9.00454023
O       -8.35559946      10.70644188       9.49965826
H       -9.46156557       9.79122493       5.22925938
H       -8.42907877       8.40649807       5.60833682
H       -7.71884440       9.94575821       4.98116940
H       -6.09550639       8.75281516       6.08429472
H       -2.90104228       8.52103008       7.76032397
H       -4.39583167       3.95858779       1.57835327
H       -2.95873874       2.55355318       0.14001555
H       -0.83832621       1.17498038       3.63029412
H       -2.30572228       2.54783996       5.06052589
H       -1.81624031       5.09828919       4.72444371
H       -4.20912334       8.88215611       9.94580899
H       -8.97248585      10.78846844       8.74709280
C       -6.14178046      10.16878819      11.20680511
C       -6.11980474      10.50558701      12.36461322
Br      -6.08427185      11.05016220      14.23669101
C        9.34050329      -5.58034332       8.68844454
O        9.91860783      -6.87465387       8.54949024
C        9.67838263      -7.53129506       7.36740166
C        9.05523292      -6.98497165       6.24332729
C        8.84294861      -7.75951097       5.09108531
C        8.23818528      -7.19292226       3.87172048
C        7.15155462      -6.41302581       3.76706846
S        6.08070254      -5.87381938       5.00691491
C        5.14732115      -4.90289531       3.89364541
N        4.14996876      -4.19848208       4.29790546
C        3.39673789      -3.41351173       3.41624486
C        3.28379883      -2.04259680       3.66830623
C        2.48436555      -1.22914999       2.85991007
C        1.79159202      -1.79159202       1.79159202
C        1.88219656      -3.15827734       1.53295609
C        2.67112050      -3.96817722       2.35476299
N        5.64503064      -5.02658902       2.63457116
C        6.71260671      -5.85907286       2.45614208
O        7.23028352      -6.10047588       1.37502010
C        9.31319406      -9.07982372       5.06194069
C        9.95703744      -9.62664601       6.17532469
C       10.13303223      -8.85463681       7.32220697
O       10.76250869      -9.37407163       8.42511928
H        9.55795992      -5.22422976       9.69986019
H        8.25172587      -5.61759066       8.57459713
H        9.78910287      -4.87314838       7.98352075
H        8.74458881      -5.94607209       6.24195537
H        8.77167054      -7.45400896       2.95671682
H        3.80518239      -1.60917190       4.51841844
H        2.39998763      -0.16916982       3.08315003
H        1.32727356      -3.60478205       0.71154511
H        2.69836387      -5.04003882       2.17568544
H        5.24852676      -4.54535541       1.84509104
H        9.18367147      -9.68624925       4.16716772
H       10.77089487      -8.65325622       9.08389600
C       10.43528487     -10.98278056       6.09930833
C       10.83581709     -12.11854324       6.03564463
Br      11.48344382     -13.95497544       5.93270581
C       -0.00445707       0.01189536      -1.78238275
H       -0.66409135       0.67374010      -2.43557963
H        0.65740317      -0.63156657      -2.45157240
C       -0.90989263      -0.90692880      -0.91072765
C        0.90977584       0.90977584      -0.90977584
C       -0.00465871       1.77757030       0.00794375
H       -0.66225468       2.44313916      -0.64384735
H        0.64322798       2.43503045       0.67728295
C       -1.78241447       0.00034974      -0.00472694
H       -2.45427497      -0.65498947       0.64260836
H       -2.43311707       0.67328779      -0.65473579
C       -0.91132561       0.90220522       0.91563759
C       -0.01476271      -0.02253852       1.78660255
H       -0.67934791      -0.69751639       2.42135241
H        0.63392994       0.61504881       2.47327442
C        0.01484550      -1.77751727      -0.01636693
H        0.67870853      -2.42144646      -0.68295456
H       -0.62264859      -2.45592969       0.64226336
C        1.78714474       0.01002794       0.00389507
H        2.44202412       0.67113390       0.66197326
H        2.45385902      -0.65136977      -0.64189061
C        0.91606151      -0.90478549       0.90901405
