186
Properties=species:S:1:pos:R:3 pbc="F F F"
C        5.69007961       5.51540109       0.00617486
C        4.53346018       4.55252239      -0.19460538
O        4.07354439       4.68489475      -1.54022300
C        3.33159776       3.63675569      -2.02312521
C        2.50846748       2.84254890      -1.22123477
C        1.79251950       1.79251950      -1.79251950
C        1.88227590       1.52629607      -3.15773014
C        2.68785929       2.32556153      -3.98029059
C        2.78997088       1.94021606      -5.39489724
C        2.01420676       2.38115824      -6.39224788
S        0.78342130       3.58460485      -6.34398097
C        0.38349191       3.35220242      -8.03337054
N       -0.51088509       4.06726494      -8.61927702
C       -0.85362416       3.88360580      -9.96621593
C        0.07997526       3.94067405     -11.00872236
C       -0.32334965       3.77096570     -12.33764338
C       -1.67270292       3.58688709     -12.63231807
C       -2.61956817       3.57279008     -11.61200971
C       -2.20588032       3.72160240     -10.28500490
N        1.13940162       2.35148225      -8.55777660
C        2.10155709       1.80315025      -7.76056212
O        2.91409541       0.96928967      -8.12340086
C        3.39746548       3.39207980      -3.40605590
O        4.20146595       4.20601614      -4.16356873
H        6.08403320       5.44433597       1.02409525
H        5.37157332       6.54643629      -0.17893211
H        6.49769700       5.29822325      -0.70096645
H        3.72528955       4.80890185       0.49955147
H        4.88525845       3.53274859       0.00498092
H        2.40921933       3.03538818      -0.15835964
H        1.33096436       0.68877483      -3.58087798
H        3.52917356       1.16342077      -5.58924054
H        1.12846473       4.13348650     -10.79795465
H        0.41746414       3.80085006     -13.13261374
H       -3.67728967       3.45873714     -11.83426476
H       -2.94745052       3.72744199      -9.48904022
H        1.05482583       2.04887053      -9.51393429
H        3.97988600       4.08871649      -5.09969271
C       -2.09163176       3.42704642     -14.00072940
C       -2.44248467       3.29317986     -15.14677390
Br      -3.00978416       3.07672895     -16.99983091
C       -6.27986127      -0.08700567      -4.83243890
C       -5.13160433      -0.28910711      -3.85987651
O       -5.01033737      -1.68822839      -3.60009638
C       -3.80507218      -2.09793018      -3.08847630
C       -3.00741835      -1.30006480      -2.26476800
C       -1.79251950      -1.79251950      -1.79251950
C       -1.36346179      -3.07576188      -2.12707843
C       -2.16059316      -3.89698698      -2.93613126
C       -1.61024063      -5.20850981      -3.30633374
C       -1.78869748      -6.35661932      -2.64229609
S       -2.78284611      -6.65987323      -1.26928778
C       -2.26786567      -8.33108570      -1.17011349
N       -2.75126549      -9.13466931      -0.28972208
C       -2.33858141     -10.47055750      -0.18705867
C       -2.39959994     -11.37520351      -1.25456823
C       -1.99360862     -12.70370325      -1.08794756
C       -1.56537035     -13.14390635       0.16277445
C       -1.54139996     -12.26940759       1.24557593
C       -1.92828296     -10.93816785       1.06572382
N       -1.33513084      -8.58870016      -2.12482947
C       -1.05364751      -7.59500124      -3.01662072
O       -0.31458787      -7.71270059      -3.97949748
C       -3.39104613      -3.40504170      -3.39951335
O       -4.21098156      -4.16507212      -4.19499714
H       -6.40717401       0.97304173      -5.07014164
H       -7.21515893      -0.47020310      -4.41157970
H       -6.09772678      -0.63777453      -5.76138540
H       -5.35029352       0.24281455      -2.92716095
H       -4.21441313       0.11096883      -4.30958182
H       -3.32279341      -0.30269664      -1.97747711
H       -0.40183401      -3.43408322      -1.76469994
H       -0.93820397      -5.17988919      -4.16374171
H       -2.77865045     -11.05867008      -2.22258535
H       -2.03126122     -13.38758007      -1.93208665
H       -1.23648504     -12.61059973       2.23137255
H       -1.92561631     -10.25894369       1.91552832
H       -0.89812269      -9.48917651      -2.23033144
H       -3.93686211      -5.09289530      -4.13853779
C       -1.16135101     -14.51467326       0.33988021
C       -0.82298481     -15.66269054       0.48820628
Br      -0.27587529     -17.51893740       0.72803699
C       -4.64566415       6.41842777       0.13521391
C       -3.71395353       5.23570710       0.33092732
O       -3.50047031       5.06542289       1.73276895
C       -3.03727391       3.83362479       2.12057996
C       -2.21358253       3.03518594       1.32348268
C       -1.79251950       1.79251950       1.79251950
C       -2.17839534       1.33618514       3.05172163
C       -2.98816920       2.13296843       3.87257378
C       -3.41409045       1.55569686       5.15529687
C       -2.78025505       1.67998911       6.32736871
S       -1.38838558       2.62261221       6.70100933
C       -1.35523150       2.05582528       8.35800809
N       -0.48578556       2.48837114       9.20150018
C       -0.43594699       2.03356603      10.52668455
C       -1.52817506       2.10028638      11.40091024
C       -1.41401489       1.65044348      12.72080106
C       -0.19040350       1.17163135      13.18446739
C        0.91727918       1.14057303      12.34193777
C        0.78941944       1.57180730      11.01833912
N       -2.34440638       1.14532720       8.55892689
C       -3.21351717       0.92046646       7.53128583
O       -4.20088821       0.20784165       7.59805608
C       -3.39993080       3.39089078       3.40477960
O       -4.19361723       4.21184923       4.16558436
H       -4.84720892       6.58408830      -0.92702330
H       -4.20925311       7.32881234       0.55887627
H       -5.59587287       6.24843479       0.65257904
H       -2.75947411       5.44155209      -0.16638627
H       -4.17813859       4.34478627      -0.10989874
H       -1.88696472       3.37094935       0.34505309
H       -1.85556566       0.35385286       3.39119864
H       -4.28966819       0.91114451       5.08102216
H       -2.47454028       2.51772438      11.06764122
H       -2.27705671       1.69354204      13.38032919
H        1.88284411       0.79593748      12.70261886
H        1.65901145       1.56335417      10.36468896
H       -2.49004054       0.68537461       9.44221549
H       -4.17346480       3.90891480       5.08591561
C       -0.06699312       0.72219450      14.54695643
C        0.03636307       0.34579114      15.68804101
Br       0.20348128      -0.26282127      17.53307825
C        0.12809111      -4.67120346       6.40001127
C        0.32480496      -3.73389222       5.22189077
O        1.72644447      -3.51402685       5.05819083
C        2.11736193      -3.04424209       3.82987464
C        1.32016168      -2.22054568       3.03154379
C        1.79251950      -1.79251950       1.79251950
C        3.05512656      -2.17141629       1.33975926
C        3.87603127      -2.98109221       2.13658792
C        5.16281316      -3.39944525       1.56282577
C        6.33177710      -2.76136840       1.69446738
S        6.69591042      -1.37184764       2.64424906
C        8.35504777      -1.32965611       2.08436099
N        9.19322539      -0.45856328       2.52386821
C       10.52003117      -0.40149121       2.07467519
C       11.39842405      -1.49042382       2.14052380
C       12.71965401      -1.36907294       1.69653247
C       13.18026852      -0.14164740       1.22458632
C       12.33336340       0.96272287       1.19459109
C       11.00855707       0.82773345       1.61990337
N        8.56369231      -2.31428718       1.17068097
C        7.54052420      -3.18663917       0.93810610
O        7.61421169      -4.17081771       0.22175653
C        3.40481623      -3.39987426       3.39091069
O        4.16551080      -4.19380537       4.21173465
H       -0.93397949      -4.87773293       6.56052049
H        0.54627122      -4.23679081       7.31387969
H        0.65001145      -5.61860295       6.22827231
H       -0.17722713      -2.78228684       5.42958022
H       -0.11050436      -4.19622745       4.32730302
H        0.33905360      -1.89927448       3.36463908
H        3.39727020      -1.84320913       0.36013783
H        5.09472593      -4.27268249       0.91442644
H       11.06732367      -2.43982817       2.55275404
H       13.38251450      -2.22959848       1.73881496
H       12.69150155       1.93114113       0.85535180
H       10.35140709       1.69469170       1.61231629
H        9.44942740      -2.45445773       0.71374551
H        5.08697458      -4.16868178       3.91263884
C       14.54405664      -0.01087518       0.78121224
C       15.68622920       0.09864656       0.40988644
Br      17.53302561       0.27573395      -0.19051596
C       -0.00445707       0.01189536      -1.78238275
H       -0.66409135       0.67374010      -2.43557963
H        0.65740317      -0.63156657      -2.45157240
C       -0.90989263      -0.90692880      -0.91072765
C        0.90977584       0.90977584      -0.90977584
C       -0.00465871       1.77757030       0.00794375
H       -0.66225468       2.44313916      -0.64384735
H        0.64322798       2.43503045       0.67728295
C       -1.78241447       0.00034974      -0.00472694
H       -2.45427497      -0.65498947       0.64260836
H       -2.43311707       0.67328779      -0.65473579
C       -0.91132561       0.90220522       0.91563759
C       -0.01476271      -0.02253852       1.78660255
H       -0.67934791      -0.69751639       2.42135241
H        0.63392994       0.61504881       2.47327442
C        0.01484550      -1.77751727      -0.01636693
H        0.67870853      -2.42144646      -0.68295456
H       -0.62264859      -2.45592969       0.64226336
C        1.78714474       0.01002794       0.00389507
H        2.44202412       0.67113390       0.66197326
H        2.45385902      -0.65136977      -0.64189061
C        0.91606151      -0.90478549       0.90901405
