178
Properties=species:S:1:pos:R:3 pbc="F F F"
C        5.69007961       5.51540109       0.00617486
C        4.53346018       4.55252239      -0.19460538
O        4.07354439       4.68489475      -1.54022300
C        3.33159776       3.63675569      -2.02312521
C        2.50846748       2.84254890      -1.22123477
C        1.79251950       1.79251950      -1.79251950
C        1.88227590       1.52629607      -3.15773014
C        2.68785929       2.32556153      -3.98029059
C        2.78997088       1.94021606      -5.39489724
C        2.01420676       2.38115824      -6.39224788
S        0.78342130       3.58460485      -6.34398097
C        0.38349191       3.35220242      -8.03337054
N       -0.51088509       4.06726494      -8.61927702
C       -0.85362416       3.88360580      -9.96621593
C        0.07997526       3.94067405     -11.00872236
C       -0.32334965       3.77096570     -12.33764338
C       -1.67270292       3.58688709     -12.63231807
Br      -2.22245240       3.37713231     -14.42804886
C       -2.61956817       3.57279008     -11.61200971
C       -2.20588032       3.72160240     -10.28500490
N        1.13940162       2.35148225      -8.55777660
C        2.10155709       1.80315025      -7.76056212
O        2.91409541       0.96928967      -8.12340086
C        3.39746548       3.39207980      -3.40605590
O        4.20146595       4.20601614      -4.16356873
H        6.08403320       5.44433597       1.02409525
H        5.37157332       6.54643629      -0.17893211
H        6.49769700       5.29822325      -0.70096645
H        3.72528955       4.80890185       0.49955147
H        4.88525845       3.53274859       0.00498092
H        2.40921933       3.03538818      -0.15835964
H        1.33096436       0.68877483      -3.58087798
H        3.52917356       1.16342077      -5.58924054
H        1.12846473       4.13348650     -10.79795465
H        0.41746414       3.80085006     -13.13261374
H       -3.67728967       3.45873714     -11.83426476
H       -2.94745052       3.72744199      -9.48904022
H        1.05482583       2.04887053      -9.51393429
H        3.97988600       4.08871649      -5.09969271
C       -4.10206992      -0.32492933      -6.77230659
C       -3.46806363      -0.41674336      -5.39578096
O       -4.02046234      -1.55129075      -4.72690905
C       -3.29412548      -2.03093828      -3.66641490
C       -2.50371661      -1.22222534      -2.84630920
C       -1.79251950      -1.79251950      -1.79251950
C       -1.86332728      -3.16168097      -1.54129385
C       -2.66716107      -3.98460622      -2.34194412
C       -2.63494181      -5.42722121      -2.06292116
C       -3.45530424      -6.09177527      -1.24053337
S       -4.82730048      -5.50082155      -0.38388509
C       -5.10790470      -7.04831807       0.38715790
N       -6.10881590      -7.23905199       1.17221101
C       -6.33880785      -8.46657498       1.80918526
C       -6.46870877      -9.67665466       1.11599175
C       -6.71940046     -10.86921149       1.80335253
C       -6.88518532     -10.84797591       3.18665899
Br      -7.24342422     -12.45438874       4.11508419
C       -6.80418341      -9.64713277       3.88608456
C       -6.53211395      -8.46311017       3.19449713
N       -4.14083536      -7.93196979       0.02414467
C       -3.23181130      -7.52490115      -0.90855702
O       -2.37137604      -8.23655928      -1.39885063
C       -3.39450534      -3.40667310      -3.39442274
O       -4.19631582      -4.16464255      -4.21009245
H       -3.70265375       0.52757139      -7.32919156
H       -5.18859881      -0.21708278      -6.69126013
H       -3.91315864      -1.23984948      -7.34387858
H       -3.69748720       0.49375461      -4.83090734
H       -2.38201409      -0.51695210      -5.51405993
H       -2.44071846      -0.15179199      -3.01045671
H       -1.28404243      -3.59066132      -0.72591341
H       -1.80101984      -5.94956513      -2.53124990
H       -6.39162039      -9.70057288       0.03228739
H       -6.79982344     -11.80187508       1.25077058
H       -6.96062384      -9.61623187       4.96114348
H       -6.48545613      -7.52225442       3.73867887
H       -4.10945999      -8.87703505       0.36886440
H       -4.36267988      -5.01987919      -3.78573614
C       -6.55306204       4.45153450       0.19470929
C       -5.21934858       3.73754094       0.32369843
O       -4.58667427       4.19077969       1.52120818
C       -3.59464077       3.38186584       2.01497205
C       -2.77359933       2.59076522       1.20788660
C       -1.79251950       1.79251950       1.79251950
C       -1.61488596       1.77653561       3.17488054
C       -2.41661374       2.57917999       3.99791768
C       -2.22083229       2.45502924       5.44922265
C       -1.39461067       3.19174327       6.20125893
S       -0.43477151       4.54304111       5.73419450
C        0.26227084       4.69770279       7.33363292
N        1.08734004       5.64161662       7.62138030
C        1.66593167       5.77026630       8.89186295
C        0.91398304       5.87446119      10.06889353
C        1.54586408       6.02278248      11.30834103
C        2.93502888       6.11181194      11.36971918
Br       3.78980207       6.33195209      13.04057875
C        3.69526458       6.05553281      10.20496340
C        3.05755959       5.88568166       8.97260492
N       -0.20032553       3.70700776       8.14132718
C       -1.15563444       2.87442760       7.63520743
O       -1.72986232       2.00628103       8.27064259
C       -3.39510370       3.39385618       3.40664131
O       -4.20827958       4.19876433       4.16400692
H       -7.08175732       4.12961814      -0.70710154
H       -6.40866794       5.53601269       0.15226109
H       -7.18412628       4.24669588       1.06606454
H       -4.59306419       3.98291192      -0.54133618
H       -5.40041184       2.65602820       0.35658607
H       -2.88071187       2.59383993       0.12841535
H       -0.85661352       1.13063323       3.61337042
H       -2.76116516       1.62211664       5.89855307
H       -0.17192183       5.85696157      10.03102247
H        0.94700787       6.08447531      12.21346050
H        4.77714375       6.15300216      10.23985382
H        3.65028746       5.85855753       8.06076161
H        0.08883698       3.60637907       9.10008855
H       -3.82421724       4.29559051       5.04848745
C        1.47339058      -2.28137869       7.44453657
C        1.41416246      -1.88682421       5.97960129
O        2.61753909      -2.33010579       5.35101726
C        2.57310910      -2.43460526       3.98376430
C        1.78290633      -1.61485165       3.17449317
C        1.79251950      -1.79251950       1.79251950
C        2.58601182      -2.77595344       1.20433685
C        3.40000109      -3.59395370       1.99975661
C        4.15256865      -4.65568803       1.31682750
C        5.39668382      -4.55725428       0.83367479
S        6.50051258      -3.24245929       0.96903525
C        7.71017212      -4.05864696       0.00024579
N        8.86336042      -3.53374939      -0.22145293
C        9.83669087      -4.16672066      -1.00721395
C       10.31547761      -5.45596294      -0.74206888
C       11.30429716      -6.02964567      -1.54868340
C       11.85037680      -5.29604813      -2.59992268
Br      13.20001365      -6.06136194      -3.67864682
C       11.41813702      -3.99655547      -2.84946087
C       10.41456312      -3.43841509      -2.05225122
N        7.23005992      -5.25359483      -0.43499428
C        6.00347832      -5.64377008       0.01802106
O        5.48962490      -6.72617626      -0.20901523
C        3.40038691      -3.40447103       3.39074324
O        4.17688844      -4.17690203       4.21726035
H        0.56556243      -1.96967482       7.96903667
H        2.33953191      -1.82381440       7.93359542
H        1.58488161      -3.36616851       7.54583658
H        1.33607913      -0.79659504       5.90196576
H        0.53343518      -2.35588294       5.52370799
H        1.16605466      -0.83277640       3.60413609
H        2.56369721      -2.91212048       0.12479947
H        3.57606619      -5.56380129       1.14196738
H        9.93458385      -6.02063555       0.10468649
H       11.65156498      -7.03811470      -1.33875174
H       11.85829563      -3.40621065      -3.64879405
H       10.08856677      -2.41700161      -2.23653669
H        7.76379025      -5.87432148      -1.02048109
H        4.85416050      -4.62539885       3.68873585
C       -0.00445707       0.01189536      -1.78238275
H       -0.66409135       0.67374010      -2.43557963
H        0.65740317      -0.63156657      -2.45157240
C       -0.90989263      -0.90692880      -0.91072765
C        0.90977584       0.90977584      -0.90977584
C       -0.00465871       1.77757030       0.00794375
H       -0.66225468       2.44313916      -0.64384735
H        0.64322798       2.43503045       0.67728295
C       -1.78241447       0.00034974      -0.00472694
H       -2.45427497      -0.65498947       0.64260836
H       -2.43311707       0.67328779      -0.65473579
C       -0.91132561       0.90220522       0.91563759
C       -0.01476271      -0.02253852       1.78660255
H       -0.67934791      -0.69751639       2.42135241
H        0.63392994       0.61504881       2.47327442
C        0.01484550      -1.77751727      -0.01636693
H        0.67870853      -2.42144646      -0.68295456
H       -0.62264859      -2.45592969       0.64226336
C        1.78714474       0.01002794       0.00389507
H        2.44202412       0.67113390       0.66197326
H        2.45385902      -0.65136977      -0.64189061
C        0.91606151      -0.90478549       0.90901405
