126
Properties=species:S:1:pos:R:3 pbc="F F F"
C        1.79352789       1.79352789      -1.79352789
C        2.67632436       1.18421743      -2.70162554
C        3.47877074       1.96590944      -3.53200802
C        3.37014678       3.33770340      -3.40884919
N        4.05487982       4.27984560      -4.16814090
C        3.70082540       5.56480784      -3.80981328
O        4.10965726       6.60401236      -4.29232802
C        2.71143484       5.40536730      -2.68181669
C        2.27313904       6.53153243      -2.10033399
C        1.40354355       6.65545821      -0.89587062
O        1.34506049       5.72576061      -0.09460482
C        0.72389527       7.92252672      -0.63670234
C        0.21675358       8.34432206       0.58326815
C       -0.38175308       9.63793234       0.51701265
C       -0.33253539      10.13563204      -0.75889727
Br      -1.01888572      11.80932738      -1.24419862
S        0.40725687       9.08455383      -1.85950170
C        2.51340923       3.96324777      -2.48888018
C        1.69988612       3.18706938      -1.68339961
H        2.73366154       0.10011543      -2.76843921
H        4.15415957       1.50757760      -4.24548081
H        4.71636246       4.08088863      -4.90308864
H        2.62246777       7.48117104      -2.49849648
H        0.29227749       7.75014023       1.48799134
H       -0.81891534      10.15741501       1.36117757
H        1.00033457       3.62794462      -0.98365454
C       -1.79352789      -1.79352789      -1.79352789
C       -2.84837214      -2.51054213      -1.20325306
C       -3.68049506      -3.30796461      -1.98822853
C       -3.41162401      -3.36278284      -3.34229250
N       -4.14473949      -4.06833902      -4.28978781
C       -3.62496050      -3.89407199      -5.55641403
O       -4.04455917      -4.36462866      -6.59680981
C       -2.41669715      -3.00916461      -5.37275707
C       -1.68262374      -2.75618482      -6.46619691
C       -0.38391599      -2.02831133      -6.54264506
O        0.32340831      -1.94767557      -5.54115867
C        0.07165302      -1.52027132      -7.83450603
C        1.37538369      -1.18502563      -8.16816555
C        1.50281216      -0.72808212      -9.51389665
C        0.28446597      -0.70550938     -10.14095051
Br       0.04448126      -0.16198456     -11.91713699
S       -0.98866555      -1.21376506      -9.14888178
C       -2.34629001      -2.67448972      -3.94475744
C       -1.53704206      -1.86426098      -3.16905206
H       -3.02755243      -2.44203179      -0.13263197
H       -4.50526207      -3.85553179      -1.54642412
H       -4.96366839      -4.62842040      -4.10825094
H       -2.02110325      -3.16639690      -7.41463515
H        2.20343192      -1.28384719      -7.47401111
H        2.43680149      -0.43571399      -9.97840960
H       -0.72492892      -1.28953150      -3.59747332
C       -1.79352789       1.79352789       1.79352789
C       -2.00768817       3.13205288       1.42242627
C       -2.82387548       3.95358978       2.19922293
C       -3.38747730       3.39769285       3.33152921
N       -4.25348477       4.04029110       4.20909044
C       -4.65354473       3.19651047       5.22539132
O       -5.41533285       3.45181342       6.13885137
C       -3.93204434       1.89606248       4.97051201
C       -4.09736161       0.92601036       5.88163349
C       -3.40733285      -0.39404716       5.94158669
O       -2.32565283      -0.53664094       5.37641403
C       -3.97884213      -1.45863464       6.76291683
C       -3.30569744      -2.57174248       7.24385254
C       -4.13715878      -3.42601348       8.02802132
C       -5.41836627      -2.94318373       8.08681137
Br      -6.80170666      -3.79022348       9.02315710
S       -5.63166509      -1.50365481       7.22330212
C       -3.16315057       2.07061619       3.73177042
C       -2.37360916       1.24969766       2.94704829
H       -1.54527721       3.53344883       0.52349016
H       -3.00698032       4.98396510       1.91627257
H       -4.57856979       4.99179118       4.12997875
H       -4.76499253       1.11926925       6.71787352
H       -2.25282192      -2.75007070       7.05167516
H       -3.80226131      -4.33601026       8.51107105
H       -2.20109189       0.21067995       3.20016189
C        1.79352789      -1.79352789       1.79352789
C        1.19729684      -2.82283848       2.54203201
C        1.98161535      -3.65470662       3.34036623
C        3.34136893      -3.41120766       3.36412277
N        4.28824912      -4.14901524       4.06560195
C        5.56092851      -3.65736948       3.85714854
O        6.60208458      -4.08806241       4.31585065
C        5.38317646      -2.46285547       2.95258690
C        6.48528939      -1.75512936       2.66458672
C        6.57232249      -0.47226598       1.91028391
O        5.58312544       0.25272364       1.83502412
C        7.86251589      -0.05166033       1.36894811
C        8.21439188       1.23871052       1.00212612
C        9.55317245       1.33122441       0.51721857
C       10.15632705       0.10071210       0.50637898
Br      11.91671581      -0.18406800      -0.06614352
S        9.15023190      -1.14297564       1.05810486
C        3.95054378      -2.37110055       2.64389284
C        3.17480691      -1.56252323       1.83302497
H        0.12232493      -2.98244997       2.49744129
H        1.53489280      -4.46014148       3.91218370
H        4.10205216      -4.95343413       4.64485344
H        7.43489571      -2.10409640       3.06314318
H        7.53820242       2.08182742       1.09805138
H       10.02963752       2.25026519       0.19794976
H        3.60738209      -0.76999529       1.23455635
C       -0.00445707       0.01189536      -1.78238275
H       -0.66409135       0.67374010      -2.43557963
H        0.65740317      -0.63156657      -2.45157240
C       -0.90989263      -0.90692880      -0.91072765
C        0.90977584       0.90977584      -0.90977584
C       -0.00465871       1.77757030       0.00794375
H       -0.66225468       2.44313916      -0.64384735
H        0.64322798       2.43503045       0.67728295
C       -1.78241447       0.00034974      -0.00472694
H       -2.45427497      -0.65498947       0.64260836
H       -2.43311707       0.67328779      -0.65473579
C       -0.91132561       0.90220522       0.91563759
C       -0.01476271      -0.02253852       1.78660255
H       -0.67934791      -0.69751639       2.42135241
H        0.63392994       0.61504881       2.47327442
C        0.01484550      -1.77751727      -0.01636693
H        0.67870853      -2.42144646      -0.68295456
H       -0.62264859      -2.45592969       0.64226336
C        1.78714474       0.01002794       0.00389507
H        2.44202412       0.67113390       0.66197326
H        2.45385902      -0.65136977      -0.64189061
C        0.91606151      -0.90478549       0.90901405
