113
Properties=species:S:1:pos:R:3 pbc="F F F"
C        0.00000000       0.00000000       0.00000000
C        0.88362387       0.88362387      -0.88362387
C        1.76642034       0.27431340      -1.79172151
C        2.56886672       1.05600542      -2.62210399
C        2.46024275       2.42779937      -2.49894516
N        3.14497579       3.36994157      -3.25823688
C        2.79092137       4.65490382      -2.89990926
O        3.19975323       5.69410834      -3.38242399
C        1.80153082       4.49546327      -1.77191267
C        1.36323502       5.62162841      -1.19042997
C        0.49363952       5.74555419       0.01403341
O        0.43515647       4.81585659       0.81529921
C       -0.18600875       7.01262269       0.27320168
C       -0.69315045       7.43441804       1.49317217
C       -1.29165710       8.72802832       1.42691668
C       -1.24243941       9.22572801       0.15100676
S       -0.50264716       8.17464981      -0.94959768
C        1.60350520       3.05334374      -1.57897615
C        0.78998209       2.27716536      -0.77349559
H        1.82375752      -0.80978859      -1.85853519
H        3.24425554       0.59767358      -3.33557679
H        3.80645843       3.17098460      -3.99318461
H        1.71256375       6.57126702      -1.58859245
H       -0.61762654       6.84023621       2.39789536
H       -1.72881936       9.24751098       2.27108160
H        0.09043055       2.71804060      -0.07375052
C       -1.77014029      10.51254971      -0.22211749
C       -2.21208978      11.59026288      -0.53460905
Br      -2.92668472      13.33283393      -1.03988146
C       -0.88362387      -0.88362387      -0.88362387
C       -0.96289686      -0.60973327      -2.25982513
C       -1.74541206      -1.41079685      -3.09076722
C       -2.43066276      -2.45543281      -2.50089171
N       -3.22896615      -3.38178724      -3.16240085
C       -3.75008401      -4.31084371      -2.28480673
O       -4.47160382      -5.25332446      -2.55135728
C       -3.24715885      -3.89844089      -0.92330702
C       -3.68837532      -4.61072643       0.12380835
C       -3.45473995      -4.34176453       1.57134417
O       -3.16752570      -3.20403366       1.93584552
C       -3.67950196      -5.41298964       2.53907934
C       -3.89384495      -5.25432779       3.90007733
C       -4.09310965      -6.49411013       4.57776524
C       -3.99210289      -7.54903891       3.70885995
S       -3.66260663      -7.07671301       2.11771931
C       -2.38424889      -2.72745519      -1.12412102
C       -1.58808301      -1.94750721      -0.30505282
H       -0.40868600       0.22304420      -2.68686232
H       -1.80428845      -1.21737585      -4.15584161
H       -3.40840266      -3.40764200      -4.15458299
H       -4.34225108      -5.45687956      -0.07329258
H       -3.92343498      -4.28203558       4.38075625
H       -4.29514149      -6.59020388       5.63773534
H       -1.49659356      -2.14222542       0.75659731
C       -4.14588386      -8.92462738       4.10598433
C       -4.27467543     -10.07668272       4.43857600
Br      -4.48292050     -11.93945878       4.97634860
C       -0.88362387       0.88362387       0.88362387
C       -2.26509353       0.93664252       0.63071920
C       -3.09572914       1.71868870       1.43255829
C       -2.50048101       2.42994829       2.45655798
N       -3.15999471       3.23248383       3.38067571
C       -2.27628967       3.78235243       4.28709235
O       -2.53945290       4.51464636       5.22218631
C       -0.91357402       3.29449943       3.86083331
C        0.13745914       3.76368247       4.54907006
C        1.58412462       3.54872571       4.26055922
O        1.93512031       3.24903369       3.12180046
C        2.56497671       3.80603406       5.31235490
C        3.91965772       4.03934615       5.12840699
C        4.61362014       4.26928042       6.35379426
C        3.76329138       4.17151866       7.42405456
S        2.17037680       3.80926728       6.98270984
C       -1.11900110       2.40975929       2.70706471
C       -0.29968160       1.61421784       1.92674360
H       -2.69629697       0.36238467      -0.18617753
H       -4.16454687       1.75754574       1.25541329
H       -4.15440438       3.39655887       3.41966441
H       -0.05670974       4.42789883       5.38781466
H        4.38432027       4.06088508       4.14814950
H        5.67158799       4.48961591       6.42958211
H        0.76625877       1.54272269       2.10575775
C        4.17964814       4.35372024       8.79045481
C        4.52834692       4.50631405       9.93481502
Br       5.09216336       4.75304536      11.78514869
C        0.88362387      -0.88362387       0.88362387
C        0.32034601      -1.49559600       2.01651325
C        1.09814747      -2.32093172       2.82789694
C        2.42253357      -2.49122312       2.47323060
N        3.34377093      -3.29894593       3.13043738
C        4.57430517      -3.26510863       2.50632064
O        5.58020373      -3.86989003       2.82619181
C        4.40971520      -2.30601380       1.35317776
C        5.50677735      -2.03894001       0.62957602
C        5.65228882      -1.04234913      -0.46947764
O        4.87390114      -0.09366205      -0.53184935
C        6.78481169      -1.15427527      -1.38567470
C        7.29244704      -0.14210971      -2.18646134
C        8.41322364      -0.56043814      -2.96420725
C        8.69434788      -1.88383763      -2.74590366
S        7.64424211      -2.61790871      -1.64055050
C        3.00860605      -1.86671116       1.36050788
C        2.22985051      -1.06835026       0.54244227
H       -0.72691915      -1.33621042       2.26321284
H        0.67169393      -2.80877045       3.69704153
H        3.16168867      -3.86114937       3.94778962
H        6.42820278      -2.55425583       0.88996461
H        6.88180190       0.86217064      -2.19491695
H        8.96738086       0.08072546      -3.63904538
H        2.63239819      -0.59429186      -0.34446838
C        9.77217133      -2.58573939      -3.39338380
C       10.67484847      -3.17358211      -3.93564842
Br      12.13440106      -4.12407407      -4.81244445
