141
Properties=species:S:1:pos:R:3 pbc="F F F"
C        0.00000000       0.00000000       0.00000000
C        0.88235141       0.88235141      -0.88235141
C        0.82643020       0.75467451      -2.26464049
C        1.62892015       1.57390003      -3.06299085
C        2.50445918       2.52035256      -2.50852385
C        2.52930470       2.63178327      -1.11025622
C        1.72861225       1.81913666      -0.29954539
N        3.21861494       3.29702574      -3.35334392
C        4.60077066       3.57931898      -3.00768733
N        5.40417768       2.39401735      -3.12745849
H        5.14021875       1.60048815      -2.56529174
C        5.91954967       2.13112648      -4.37413293
O        6.41971268       1.07115806      -4.72199242
C        5.77918116       3.33884996      -5.23810149
C        5.92179998       3.26467886      -6.56721791
C        5.66600180       4.32702495      -7.54976744
C        6.69741172       4.62521710      -8.45482622
C        6.50274600       5.56876149      -9.46519417
C        5.28196970       6.22535737      -9.59908058
C        4.24549296       5.92714366      -8.71595542
C        4.43428048       4.98552739      -7.70265622
O        3.33684053       4.74256985      -6.92298332
S        5.25457439       4.69613590      -4.30499762
H        0.16957215       0.03391673      -2.73749728
H        1.57510124       1.47398066      -4.14640514
H        3.15777679       3.37802799      -0.63191393
H        1.77035718       1.94103757       0.77734658
H        4.77248739       4.03734752      -2.03047231
H        6.22815174       2.31381893      -7.00011665
H        7.65366812       4.11285764      -8.36952173
H        5.12257841       6.95782619     -10.38309689
H        3.28358933       6.42322754      -8.81090487
H        3.61302951       4.36293514      -6.06068049
C        7.56930953       5.85591932     -10.38908952
C        8.46255649       6.09641399     -11.16285187
Br       9.90686128       6.48527355     -12.41396015
C       -0.88235141      -0.88235141      -0.88235141
C       -2.20106205      -0.51906648      -1.12561668
C       -2.99627341      -1.32665954      -1.94287809
C       -2.50510916      -2.50769847      -2.52052796
C       -1.16662078      -2.84065818      -2.26406523
C       -0.35885583      -2.03892836      -1.44951011
N       -3.33027807      -3.21154867      -3.32715785
C       -3.29937737      -4.66025948      -3.22814011
N       -3.85591439      -5.09351812      -1.97622102
H       -3.41635337      -4.75433938      -1.13530588
C       -5.21934223      -5.26329021      -1.94217664
O       -5.88901609      -5.39589661      -0.92795045
C       -5.75790281      -5.26512177      -3.33310803
C       -7.06624107      -5.11395126      -3.57350443
C       -7.71671016      -4.94567875      -4.88040527
C       -8.77598318      -5.81535564      -5.18611623
C       -9.49224052      -5.66898942      -6.37547173
C       -9.17534495      -4.65508434      -7.27597836
C       -8.13552723      -3.77620172      -6.97686309
C       -7.41460990      -3.91808974      -5.78976444
O       -6.44596983      -2.97486052      -5.58156334
S       -4.46873161      -5.30289881      -4.48407750
H       -2.62549244       0.38114910      -0.69664283
H       -4.02727626      -1.03251467      -2.13569610
H       -0.72463555      -3.72163437      -2.72144878
H        0.67347772      -2.32595320      -1.28157269
H       -2.32693070      -5.13595850      -3.37741802
H       -7.74495037      -5.07401237      -2.72312457
H       -9.04232828      -6.60613389      -4.48758532
H       -9.72895097      -4.53370218      -8.20084834
H       -7.88013381      -2.97399033      -7.66359760
H       -5.77721902      -3.31248795      -4.94693816
C      -10.58051785      -6.56531152      -6.66848899
C      -11.49195013      -7.31598129      -6.91389095
Br     -12.96565902      -8.52975081      -7.31068515
C       -0.88235141       0.88235141       0.88235141
C       -1.10587327       2.20800287       0.53186907
C       -1.92327805       3.00333028       1.33920269
C       -2.52055645       2.50526125       2.50751790
C       -2.28371149       1.16003314       2.82759956
C       -1.46922869       0.35211735       2.02594827
N       -3.32575413       3.33162891       3.21160156
C       -3.24424441       3.28262857       4.66090398
N       -1.99111739       3.81921882       5.11531732
H       -1.15144491       3.37373790       4.78081583
C       -1.94314946       5.18007120       5.30158842
O       -0.92280444       5.83610782       5.45395090
C       -3.32761539       5.73498575       5.29353147
C       -3.55089857       7.04775309       5.15504509
C       -4.84802583       7.71555511       4.97921325
C       -5.15159871       8.76813218       5.85772416
C       -6.33068700       9.50006715       5.70594751
C       -7.22278215       9.20571599       4.67790951
C       -6.92546777       8.17277714       3.79034714
C       -5.74863753       7.43626184       3.93756472
O       -5.54063182       6.47631808       2.98544379
S       -4.49394065       4.45916315       5.30260412
H       -0.66135149       2.63782326      -0.35818859
H       -2.10054011       4.03990899       1.05503794
H       -2.75661668       0.71322121       3.69788081
H       -1.31677514      -0.68541440       2.30268744
H       -3.41049372       2.30652169       5.12329181
H       -2.69223103       7.71677837       5.13307791
H       -4.45940340       9.01693649       6.65970760
H       -8.13961806       9.77160218       4.55228125
H       -7.60560510       7.93491711       2.97719953
H       -4.91790384       5.79620807       3.32253322
C       -6.62154405      10.58118298       6.61159134
C       -6.86513682      11.48661748       7.37006805
Br      -7.25900574      12.95062849       8.59646074
C        0.88235141      -0.88235141       0.88235141
C        0.34550335      -2.01079119       1.48945067
C        1.16335730      -2.81725119       2.28520254
C        2.51671365      -2.51499216       2.50162978
C        3.03061704      -1.37486567       1.86586148
C        2.22274144      -0.56036334       1.06418952
N        3.24556526      -3.36756920       3.25585014
C        4.20234908      -2.79738708       4.18804081
N        3.52352185      -2.13478534       5.26734634
H        2.89880334      -1.38219761       5.02499768
C        3.16697973      -2.92123431       6.33659505
O        2.39213333      -2.59610112       7.22462871
C        3.87332404      -4.23212626       6.25068231
C        3.48589969      -5.28146814       6.98632892
C        3.98310869      -6.66148008       6.89820542
C        4.43130449      -7.25869891       8.08745164
C        4.84719730      -8.59134011       8.09816425
C        4.81841948      -9.35440324       6.93358493
C        4.36153459      -8.77720608       5.74985138
C        3.94550484      -7.44466406       5.73229520
O        3.47791015      -6.99744459       4.52703895
S        5.05972581      -4.20215001       4.99383209
H       -0.69549634      -2.28088515       1.35559736
H        0.73825400      -3.70468913       2.75254390
H        4.08210343      -1.11980450       1.96581078
H        2.65914015       0.30821716       0.58312519
H        4.95193193      -2.12518915       3.76318614
H        2.69196359      -5.13359808       7.71652564
H        4.44978926      -6.67840714       9.00785109
H        5.13767724     -10.39106656       6.93475769
H        4.32394515      -9.36003952       4.83373708
H        3.53208517      -6.01795535       4.48660462
C        5.29625012      -9.18929262       9.32877563
C        5.67233186      -9.69007784      10.35941266
Br       6.28042422     -10.49980519      12.02586557
