53
Properties=species:S:1:pos:R:3 pbc="F F F"
C        0.00000000       0.00000000       0.00000000
C        0.88206826       0.88206826      -0.88206826
C        0.61795587       2.24677423      -0.97425461
C        1.44278827       3.05399690      -1.75680220
C        2.51521786       2.48673710      -2.45287739
Br       3.61704808       3.63975960      -3.48718243
C        2.75603371       1.10227681      -2.41109283
N        3.90004099       0.52660787      -2.99377427
C        1.95253087       0.31447541      -1.57766639
H       -0.21122059       2.69063724      -0.43106092
H        1.24915183       4.12225133      -1.81091523
H        3.80097996      -0.45608063      -3.22771669
H        4.26738570       1.07746794      -3.76692068
H        2.16519169      -0.74554025      -1.46760862
C       -0.88206826      -0.88206826      -0.88206826
C       -0.37807027      -1.37893592      -2.08197852
C       -1.17546479      -2.20777058      -2.87035200
C       -2.47556767      -2.51976632      -2.45949836
Br      -3.50834403      -3.67056357      -3.56508250
C       -3.01272991      -1.97805242      -1.27862101
N       -4.26532583      -2.37754740      -0.77754990
C       -2.18084847      -1.19250001      -0.47132419
H        0.63272621      -1.14213090      -2.40107287
H       -0.77388033      -2.61268699      -3.79575107
H       -4.70764846      -1.69818844      -0.16677913
H       -4.89136889      -2.71427583      -1.50612960
H       -2.54630841      -0.82467375       0.48372211
C       -0.88206826       0.88206826       0.88206826
C       -1.97911588       1.53515350       0.32471534
C       -2.79924389       2.31576252       1.13858095
C       -2.50603382       2.44909288       2.49970565
Br      -3.67115121       3.50947694       3.56336196
C       -1.36965348       1.83980135       3.05994852
N       -1.12480480       1.85017111       4.44544722
C       -0.58796163       1.01536265       2.24134840
H       -2.21182830       1.42953678      -0.73088752
H       -3.66750412       2.80745575       0.70735853
H       -0.15022207       1.72333366       4.69906030
H       -1.55025565       2.64726157       4.91425710
H        0.25137286       0.47180478       2.66682814
C        0.88206826      -0.88206826       0.88206826
C        2.06957010      -0.36968229       1.39973233
C        2.85756313      -1.16757284       2.22845140
C        2.45896404      -2.47630613       2.51956218
Br       3.56310411      -3.50964917       3.67123683
C        1.29144454      -3.02106899       1.95688982
N        0.80099489      -4.28447358       2.33495465
C        0.48358145      -2.18945852       1.17163271
H        2.37906692       0.64774921       1.17915985
H        3.77297033      -0.75978830       2.64955976
H        0.20400251      -4.72579584       1.64281768
H        1.53307258      -4.90571499       2.67298674
H       -0.46236302      -2.56193990       0.78768318
