82
Properties=species:S:1:pos:R:3 pbc="F F F"
C        1.79197228       1.79197228      -1.79197228
C        1.52785989       3.15667826      -1.88415864
C        2.35269230       3.96390092      -2.66670622
C        3.42512188       3.39664113      -3.36278141
C        3.66593773       2.01218084      -3.32099685
N        4.80994501       1.43651189      -3.90367829
C        2.86243489       1.22437944      -2.48757041
H        0.69868343       3.60054126      -1.34096494
H        2.15905586       5.03215535      -2.72081926
H        4.71088399       0.45382340      -4.13762072
H        5.17728972       1.98737197      -4.67682471
H        3.07509572       0.16436377      -2.37751265
C        4.25981437       4.27011437      -4.14632014
C        4.95886933       5.00164821      -4.80253383
Br       6.08918207       6.18447656      -5.86357587
C       -1.79197228      -1.79197228      -1.79197228
C       -2.89596142      -1.23722573      -2.43550963
C       -3.68179500      -2.03821465      -3.26328978
C       -3.36585742      -3.39080574      -3.42788126
C       -2.28747959      -3.97282708      -2.73880875
N       -1.87044808      -5.29367549      -2.98601163
C       -1.47615345      -3.14310004      -1.95513126
H       -3.14078538      -0.18617045      -2.31323380
H       -4.53024882      -1.59955543      -3.78222621
H       -1.36069636      -5.72182085      -2.21981090
H       -2.62225240      -5.88502284      -3.33421115
H       -0.59192978      -3.55172503      -1.47331733
C       -4.19555948      -4.17670429      -4.30398511
C       -4.89043496      -4.83489433      -5.03772208
Br      -6.01398983      -5.89913195      -6.22411271
C       -1.79197228       1.79197228       1.79197228
C       -2.90228807       1.23970846       2.42670026
C       -3.68826457       2.04047503       3.25455984
C       -3.36605532       3.39047690       3.42801221
C       -2.28096363       3.97039187       2.74775992
N       -1.85827062       5.28767720       3.00418738
C       -1.46988190       3.14051907       1.96398378
H       -3.15201547       0.19063181       2.29754235
H       -4.54177534       1.60359536       3.76665976
H       -1.34219291       5.71715292       2.24298227
H       -2.60877719       5.88116436       3.35154484
H       -0.58095862       3.54697870       1.48903481
C       -4.19623592       4.17613119       4.30388177
C       -4.89151218       4.83411666       5.03742253
Br      -6.01571508       5.89802351       6.22349591
C        1.79197228      -1.79197228       1.79197228
C        1.30172919      -3.01034885       2.25661875
C        2.11981426      -3.82649994       3.03698524
C        3.41565575      -3.40992526       3.35896341
C        3.89955193      -2.15753685       2.94202664
N        5.23802019      -1.77175158       3.14036342
C        3.08589082      -1.37470129       2.11379264
H        0.29761130      -3.33840938       2.00416895
H        1.74422303      -4.78679559       3.38101185
H        5.38751008      -0.76784525       3.14697277
H        5.66734325      -2.23622957       3.93791358
H        3.46463743      -0.43749270       1.71484200
C        4.23070065      -4.29131411       4.15423413
C        4.91330076      -5.02947726       4.82027335
Br       6.01700740      -6.22302466       5.89720244
C       -0.00445707       0.01189536      -1.78238275
H       -0.66409135       0.67374010      -2.43557963
H        0.65740317      -0.63156657      -2.45157240
C       -0.90989263      -0.90692880      -0.91072765
C        0.90977584       0.90977584      -0.90977584
C       -0.00465871       1.77757030       0.00794375
H       -0.66225468       2.44313916      -0.64384735
H        0.64322798       2.43503045       0.67728295
C       -1.78241447       0.00034974      -0.00472694
H       -2.45427497      -0.65498947       0.64260836
H       -2.43311707       0.67328779      -0.65473579
C       -0.91132561       0.90220522       0.91563759
C       -0.01476271      -0.02253852       1.78660255
H       -0.67934791      -0.69751639       2.42135241
H        0.63392994       0.61504881       2.47327442
C        0.01484550      -1.77751727      -0.01636693
H        0.67870853      -2.42144646      -0.68295456
H       -0.62264859      -2.45592969       0.64226336
C        1.78714474       0.01002794       0.00389507
H        2.44202412       0.67113390       0.66197326
H        2.45385902      -0.65136977      -0.64189061
C        0.91606151      -0.90478549       0.90901405
