61
Properties=species:S:1:pos:R:3 pbc="F F F"
C        0.00000000       0.00000000       0.00000000
C        0.88206826       0.88206826      -0.88206826
C        0.61795587       2.24677423      -0.97425461
C        1.44278827       3.05399690      -1.75680220
C        2.51521786       2.48673710      -2.45287739
C        2.75603371       1.10227681      -2.41109283
N        3.90004099       0.52660787      -2.99377427
C        1.95253087       0.31447541      -1.57766639
H       -0.21122059       2.69063724      -0.43106092
H        1.24915183       4.12225133      -1.81091523
H        3.80097996      -0.45608063      -3.22771669
H        4.26738570       1.07746794      -3.76692068
H        2.16519169      -0.74554025      -1.46760862
C        3.34991035       3.36021035      -3.23641612
C        4.04896530       4.09174419      -3.89262981
Br       5.17927805       5.27457254      -4.95367184
C       -0.88206826      -0.88206826      -0.88206826
C       -1.98690727      -0.32764920      -1.52442823
C       -2.77275989      -1.12860836      -2.35221912
C       -2.45597973      -2.48085770      -2.51799492
C       -1.37670033      -3.06260202      -1.83010100
N       -0.95890747      -4.38297832      -2.07853734
C       -0.56540687      -2.23285537      -1.04641043
H       -2.23238997       0.72314499      -1.40123259
H       -3.62189290      -0.69018356      -2.87024194
H       -0.44830830      -4.81130514      -1.31300259
H       -1.71053908      -4.97461209      -2.42662315
H        0.31944831      -2.64119423      -0.56551415
C       -3.28574581      -3.26672336      -3.39406764
C       -3.98067490      -3.92488584      -4.12777855
Br      -5.10431647      -4.98907892      -5.31412704
C       -0.88206826       0.88206826       0.88206826
C       -2.26633247       0.73084834       0.84180391
C       -3.06685142       1.51698615       1.66974979
C       -2.47691666       2.45853310       2.51938258
C       -1.08525928       2.65780646       2.52633761
N       -0.45766426       3.50209020       3.46066866
C       -0.29201137       1.82286573       1.72979556
H       -2.72675019      -0.00277230       0.18649967
H       -4.14548010       1.38323113       1.65360716
H        0.44673023       3.85495158       3.16439468
H       -1.07249677       4.23869152       3.80058603
H        0.79077367       1.90409899       1.77393474
C       -3.34078140       3.23776414       3.36799127
C       -4.06426812       3.89037013       4.07870105
Br      -5.23408495       4.94557882       5.22785865
C        0.88206826      -0.88206826       0.88206826
C        0.39359643      -2.10267283       1.34271545
C        1.21176514      -2.91873555       2.12308667
C        2.50587082      -2.49988844       2.44907310
C        2.98780455      -1.24539883       2.03619997
N        4.32489794      -0.85695160       2.23857358
C        2.17424973      -0.46252895       1.20789399
H       -0.60915717      -2.43248727       1.08714746
H        0.83762181      -3.88071000       2.46398659
H        4.47201934       0.14728319       2.24787987
H        4.75344260      -1.32229218       3.03603954
H        2.55173092       0.47649462       0.81202377
C        3.32111740      -3.38123058       3.24418883
C        4.00388640      -4.11935463       3.91009826
Br       5.10786614      -5.31283879       4.98681749
