165
Properties=species:S:1:pos:R:3 pbc="F F F"
C        0.00000000       0.00000000       0.00000000
C        4.86034066      -4.71672315      -7.52826362
C        5.26932277      -4.32413892      -6.11766612
C        4.93517127      -2.86416831      -5.82455582
C        5.29890847      -2.48350088      -4.39168129
O        4.98716702      -1.10234816      -4.14489165
C        3.69141117      -0.84221324      -3.82835134
O        2.79719905      -1.66469689      -3.75469055
C        3.52431319       0.61454359      -3.57441186
C        4.29171512       1.50619712      -4.33412655
C        4.13255737       2.86726306      -4.14031309
N        3.25440523       3.34613206      -3.22850022
C        2.50890083       2.49986964      -2.50206552
C        1.61740141       3.05065499      -1.59040627
C        0.80032728       2.25992244      -0.78032353
C        0.88103084       0.88103084      -0.88103084
C        1.76692307       0.29944155      -1.78555803
C        2.59351294       1.09868093      -2.62209658
C        4.89999703       3.88514536      -4.88985190
C        5.32691508       3.67672997      -6.21565579
C        6.06363138       4.64656742      -6.90635680
C        6.38217235       5.84808433      -6.28182513
Br       7.37962467       7.15584561      -7.21190798
C        5.96582868       6.09115415      -4.97774211
C        5.22960586       5.11792995      -4.29307243
H        5.10993326      -5.76547363      -7.71722076
H        5.37832312      -4.10373545      -8.27257749
H        3.78193377      -4.59387346      -7.67182901
H        6.34531566      -4.49205218      -5.99316891
H        4.75395424      -4.97501589      -5.40172076
H        3.86798755      -2.68337962      -5.99951306
H        5.46705084      -2.20392768      -6.52094243
H        6.37763981      -2.59618409      -4.23731408
H        4.80131913      -3.12861983      -3.65761092
H        5.00815531       1.13462797      -5.05943075
H        1.55479572       4.13420631      -1.50770169
H        0.11481753       2.73263136      -0.08223763
H        1.80963030      -0.78620196      -1.83725110
H        5.07613328       2.75848218      -6.74235986
H        6.37635417       4.45381063      -7.92935669
H        6.20346673       7.02864357      -4.48225935
H        4.91087394       5.32664102      -3.27213623
C        4.48163542      -8.15113812      -4.00237844
C        4.21834424      -6.75025453      -4.53093968
C        2.76396071      -6.33789399      -4.32162550
C        2.51111132      -4.91241289      -4.80578731
O        1.13336579      -4.55297703      -4.61009928
C        0.81098511      -4.12854777      -3.35998662
O        1.57546819      -4.04623731      -2.41642358
C       -0.63189942      -3.76726300      -3.31410622
C       -1.52241737      -4.51876895      -4.09085246
C       -2.87381265      -4.22423966      -4.04208121
N       -3.34385540      -3.22253615      -3.26264597
C       -2.49942647      -2.50269722      -2.50871230
C       -3.04194128      -1.49542534      -1.72109605
C       -2.25158093      -0.68356147      -0.90543085
C       -0.88103084      -0.88103084      -0.88103084
C       -0.30772313      -1.88284992      -1.66134962
C       -1.10779950      -2.72115624      -2.48533470
C       -3.88923498      -4.95724427      -4.82851504
C       -3.74774153      -6.32094689      -5.15061242
C       -4.71320222      -6.99639641      -5.90695697
C       -5.84348158      -6.31774223      -6.35085800
Br      -7.14498190      -7.22755274      -7.37484361
C       -6.02030781      -4.97410973      -6.04030741
C       -5.05187251      -4.30492277      -5.28381296
H        5.52854220      -8.42653911      -4.16368349
H        3.85300609      -8.88807462      -4.51209663
H        4.27759899      -8.20919684      -2.92829147
H        4.46571469      -6.71399232      -5.59815476
H        4.88283969      -6.04425217      -4.01924662
H        2.50077276      -6.42414895      -3.26074479
H        2.09263225      -7.02498287      -4.85171497
H        2.70581900      -4.84295198      -5.88163682
H        3.17234453      -4.18925345      -4.31340131
H       -1.15663619      -5.31623006      -4.72934778
H       -4.11863019      -1.33675851      -1.74131503
H       -2.71790513       0.09132275      -0.30310414
H        0.77193252      -2.00937632      -1.62323564
H       -2.88793656      -6.88825746      -4.80078129
H       -4.57334185      -8.04957220      -6.13660744
H       -6.90235521      -4.43566110      -6.37635335
H       -5.20815701      -3.25231494      -5.04917924
C       -8.03482911       4.17288001      -4.53582798
C       -6.63068578       4.67872715      -4.24656296
C       -6.24102145       4.44429301      -2.78975569
C       -4.81273949       4.90555414      -2.51120475
O       -4.47476327       4.68649424      -1.13154699
C       -4.07159975       3.42649808      -0.82054856
O       -3.99157067       2.49225881      -1.59663677
C       -3.73064924       3.35631795       0.62630146
C       -4.48370934       4.13119172       1.51713772
C       -4.20829486       4.06025977       2.87157889
N       -3.22364954       3.26100850       3.34437948
C       -2.50257185       2.50875515       2.49950899
C       -1.51345615       1.70027475       3.04473177
C       -0.70193623       0.88432131       2.25431572
C       -0.88103084       0.88103084       0.88103084
C       -1.86437340       1.68255459       0.30499467
C       -2.70235148       2.50705598       1.10488299
C       -4.94442801       4.84288907       3.88767721
C       -6.30162601       5.18540190       3.73227293
C       -6.97993843       5.93783487       4.69878230
C       -6.31083798       6.35722441       5.84401941
Br      -7.22444906       7.37592612       7.14700307
C       -4.97403249       6.02605486       6.03463760
C       -4.30194299       5.27359728       5.06506797
H       -8.29375374       4.35197333      -5.58404668
H       -8.77334356       4.68409508      -3.91027347
H       -8.11008825       3.09703881      -4.34723774
H       -6.57672131       5.74857684      -4.47886575
H       -5.92263787       4.16644081      -4.90841958
H       -6.34509985       3.38124489      -2.54222376
H       -6.93000523       4.97462298      -2.12056263
H       -4.72618362       5.98287692      -2.69029073
H       -4.08732263       4.41229382      -3.16930623
H       -5.26746342       4.78534622       1.14940439
H       -1.36921085       1.70386194       4.12363094
H        0.05836172       0.26528532       2.72276291
H       -1.97668419       1.66067780      -0.77668256
H       -6.86182302       4.85491430       2.86023799
H       -8.02793086       6.18366649       4.54792414
H       -4.44318029       6.34285402       6.92833535
H       -3.25480905       5.02257038       5.23227175
C       -1.40094600      -9.98730322      -0.91447609
C       -1.94346643      -8.95039607       0.05592033
C       -0.82572764      -8.08707458       0.63421184
C       -1.37507005      -7.01280029       1.56935864
O       -0.30331389      -6.22265981       2.11036460
C        0.14669481      -5.22049298       1.31036148
O       -0.26712804      -4.95816549       0.19615525
C        1.22975341      -4.47557063       2.00794461
C        2.09227525      -5.19792819       2.84183534
C        3.12754756      -4.53501773       3.47756823
N        3.31419265      -3.20501948       3.30982538
C        2.49817368      -2.50627847       2.50638385
C        2.74642795      -1.14699565       2.36503907
C        1.95396566      -0.32724694       1.55936066
C        0.88103084      -0.88103084       0.88103084
C        0.60628978      -2.24138179       1.00425108
C        1.41619989      -3.08447110       1.81361945
C        4.08547071      -5.20974661       4.37977697
C        4.46933115      -6.55246083       4.19750887
C        5.36821823      -7.17947135       5.06886602
C        5.90451067      -6.46942059       6.13815054
Br       7.11467408      -7.31596391       7.31674027
C        5.55617593      -5.13862795       6.33992107
C        4.65754412      -4.51774231       5.46532182
H       -2.21798989     -10.59516808      -1.31549780
H       -0.69047388     -10.65601925      -0.41838021
H       -0.89119275      -9.50713919      -1.75605712
H       -2.47856542      -9.45863442       0.86636339
H       -2.67034131      -8.31751709      -0.46651669
H       -0.25709591      -7.61958639      -0.17836950
H       -0.10664396      -8.70993919       1.18077036
H       -1.88238855      -7.48133370       2.41982465
H       -2.11226918      -6.37283358       1.06974583
H        1.94565322      -6.26218895       2.99437185
H        3.58746012      -0.70939896       2.89984465
H        2.18559210       0.73103238       1.47512680
H       -0.24617265      -2.64464120       0.46221088
H        4.08725705      -7.13072824       3.35899002
H        5.64416278      -8.21691541       4.89844329
H        5.97381276      -4.57245299       7.16810391
H        4.39726862      -3.47384809       5.63853447
