173
Properties=species:S:1:pos:R:3 pbc="F F F"
C        0.00000000       0.00000000       0.00000000
C        4.86034066      -4.71672315      -7.52826362
C        5.26932277      -4.32413892      -6.11766612
C        4.93517127      -2.86416831      -5.82455582
C        5.29890847      -2.48350088      -4.39168129
O        4.98716702      -1.10234816      -4.14489165
C        3.69141117      -0.84221324      -3.82835134
O        2.79719905      -1.66469689      -3.75469055
C        3.52431319       0.61454359      -3.57441186
C        4.29171512       1.50619712      -4.33412655
C        4.13255737       2.86726306      -4.14031309
N        3.25440523       3.34613206      -3.22850022
C        2.50890083       2.49986964      -2.50206552
C        1.61740141       3.05065499      -1.59040627
C        0.80032728       2.25992244      -0.78032353
C        0.88103084       0.88103084      -0.88103084
C        1.76692307       0.29944155      -1.78555803
C        2.59351294       1.09868093      -2.62209658
C        4.89999703       3.88514536      -4.88985190
C        5.32691508       3.67672997      -6.21565579
C        6.06363138       4.64656742      -6.90635680
C        6.38217235       5.84808433      -6.28182513
C        5.96582868       6.09115415      -4.97774211
C        5.22960586       5.11792995      -4.29307243
H        5.10993326      -5.76547363      -7.71722076
H        5.37832312      -4.10373545      -8.27257749
H        3.78193377      -4.59387346      -7.67182901
H        6.34531566      -4.49205218      -5.99316891
H        4.75395424      -4.97501589      -5.40172076
H        3.86798755      -2.68337962      -5.99951306
H        5.46705084      -2.20392768      -6.52094243
H        6.37763981      -2.59618409      -4.23731408
H        4.80131913      -3.12861983      -3.65761092
H        5.00815531       1.13462797      -5.05943075
H        1.55479572       4.13420631      -1.50770169
H        0.11481753       2.73263136      -0.08223763
H        1.80963030      -0.78620196      -1.83725110
H        5.07613328       2.75848218      -6.74235986
H        6.37635417       4.45381063      -7.92935669
H        6.20346673       7.02864357      -4.48225935
H        4.91087394       5.32664102      -3.27213623
C        7.14233770       6.84473830      -6.99064774
C        7.77897618       7.67943600      -7.58428668
Br       8.80836677       9.02907158      -8.54415064
C        2.99967853      -1.05758058      -9.61397909
C        2.00370140      -0.13022092      -8.93633045
C        1.04342077      -0.90273906      -8.03624049
C        0.07595219       0.03311957      -7.31616064
O       -0.82507118      -0.71848743      -6.48615191
C       -0.34125530      -1.07036867      -5.26592530
O        0.77076581      -0.81739877      -4.84055975
C       -1.38655709      -1.81452530      -4.51218626
C       -2.24707067      -2.65089324      -5.23407487
C       -3.20758612      -3.37883966      -4.55370774
N       -3.32980258      -3.29057034      -3.20866460
C       -2.50456694      -2.49849768      -2.50777138
C       -2.67115048      -2.45789477      -1.12941742
C       -1.87097840      -1.66172648      -0.30786837
C       -0.88103084      -0.88103084      -0.88103084
C       -0.69097324      -0.89979298      -2.26115644
C       -1.49434939      -1.71722107      -3.10271999
C       -4.16349458      -4.28353355      -5.22796617
C       -3.83135972      -4.98445464      -6.40348648
C       -4.75317161      -5.82753376      -7.03585023
C       -6.02584547      -5.98848255      -6.49775379
C       -6.38244034      -5.32071354      -5.33157107
C       -5.45647030      -4.47983634      -4.70430161
H        3.67663796      -0.48376293     -10.25455543
H        2.48693714      -1.79757979     -10.23652251
H        3.60458704      -1.59094883      -8.87352753
H        1.43937033       0.41549682      -9.70129954
H        2.55183390       0.61269706      -8.34519006
H        1.60968849      -1.49007045      -7.30373903
H        0.47211472      -1.63158313      -8.62459717
H       -0.54011819       0.56836785      -8.04701947
H        0.60325056       0.79164761      -6.72520839
H       -2.16741817      -2.72082200      -6.31397386
H       -3.45072618      -3.06850768      -0.67746987
H       -2.03396691      -1.66215837       0.76643877
H        0.09186182      -0.27186653      -2.68067472
H       -2.83806103      -4.89988901      -6.83902527
H       -4.46359104      -6.35469337      -7.94123708
H       -7.37160111      -5.44391442      -4.89885413
H       -5.75339606      -3.96573423      -3.79052089
C       -6.97531497      -6.85314793      -7.14926085
C       -7.77049567      -7.57730519      -7.69489801
Br      -9.05623562      -8.74820623      -8.57714714
C       -6.07659757       6.46983885      -4.87455528
C       -4.69814365       6.61472405      -4.25001773
C       -4.66671453       6.05817526      -2.82933101
C       -3.27042312       6.15693265      -2.22026689
O       -3.27005221       5.63917864      -0.87952033
C       -3.16253241       4.28859817      -0.77358131
O       -3.08378757       3.50529226      -1.70188712
C       -3.14779357       3.90207100       0.66340407
C       -3.92583083       4.65253049       1.55367746
C       -3.95506724       4.29477055       2.89029573
N       -3.24241062       3.23893831       3.34768859
C       -2.50087411       2.50905062       2.50091126
C       -1.80058794       1.43099162       3.02688311
C       -0.99422597       0.61158683       2.23476045
C       -0.88103084       0.88103084       0.88103084
C       -1.57052790       1.95646725       0.32492751
C       -2.40287650       2.78799436       1.12341958
C       -4.74158288       5.02770885       3.90570256
C       -5.95738027       5.66700527       3.59491529
C       -6.68305788       6.36731250       4.56618522
C       -6.20559890       6.43548486       5.87099804
C       -5.01483342       5.80532792       6.21456361
C       -4.29451438       5.10681827       5.23927559
H       -6.07677250       6.87584703      -5.89093914
H       -6.83051303       7.00883643      -4.29218430
H       -6.37269595       5.41726677      -4.93007340
H       -4.41446647       7.67345424      -4.24148831
H       -3.96618260       6.08726426      -4.87278776
H       -5.00065591       5.01382964      -2.83036457
H       -5.37875599       6.59777936      -2.19246977
H       -2.96517390       7.20694859      -2.15335268
H       -2.51926009       5.64353004      -2.83247990
H       -4.49180298       5.50877669       1.20163436
H       -1.88593505       1.21953389       4.09123478
H       -0.46581343      -0.22320998       2.68708306
H       -1.45698510       2.14413398      -0.74043964
H       -6.37168183       5.61493301       2.59036048
H       -7.61862796       6.84829120       4.29260232
H       -4.63564858       5.84662372       7.23209736
H       -3.36406774       4.61821534       5.52736811
C       -6.94999187       7.15803310       6.86969877
C       -7.57342099       7.76316724       7.70611064
Br      -8.58145313       8.74161798       9.05851788
C        1.22045158       3.10852425       9.55995381
C        2.05095512       3.28731663       8.29921148
C        2.27185963       1.95839590       7.58209505
C        3.06222205       2.14455056       6.28941739
O        3.26806932       0.87879922       5.64044041
C        2.23239155       0.43531767       4.88047540
O        1.16833990       1.00529768       4.72415048
C        2.59674770      -0.86380252       4.25271843
C        3.40505905      -1.74306615       4.98391358
C        3.73250139      -2.97123609       4.43639604
N        3.28934983      -3.33061824       3.20906945
C        2.50766121      -2.49844300       2.50473178
C        2.07483225      -2.92714888       1.25648153
C        1.26440939      -2.13650305       0.43966082
C        0.88103084      -0.88103084       0.88103084
C        1.30067979      -0.42306297       2.12817990
C        2.11632847      -1.22762829       2.97033368
C        4.58296274      -3.96338783       5.12864372
C        4.59913235      -4.08886831       6.53130018
C        5.42001130      -5.02551644       7.17102786
C        6.23760502      -5.85935840       6.41511838
C        6.23697493      -5.77010831       5.02764171
C        5.41406960      -4.83212777       4.39441087
H        1.07562386       4.07217510      10.05823163
H        1.71526228       2.43192484      10.26382772
H        0.23358033       2.69746576       9.32377474
H        3.01695142       3.73325505       8.56273602
H        1.53997109       3.99044921       7.63113722
H        1.30618538       1.48679919       7.36473480
H        2.80556332       1.25667869       8.23518095
H        4.05512448       2.54973421       6.51337953
H        2.57365305       2.85226095       5.60891813
H        3.77698185      -1.46159283       5.96363935
H        2.37767982      -3.91240232       0.90662158
H        0.94638512      -2.51231391      -0.52901252
H        0.98614404       0.56920922       2.44374462
H        3.95595644      -3.46888555       7.15213333
H        5.40708352      -5.09687306       8.25556490
H        6.86679663      -6.42069740       4.42687563
H        5.42600794      -4.77750384       3.30613941
C        7.08424215      -6.82087607       7.07260552
C        7.79330075      -7.62614712       7.62325099
Br       8.93978853      -8.92820231       8.51359815
