194
Properties=species:S:1:pos:R:3 pbc="F F F"
C        5.77024469      -3.80681913      -8.43816765
C        6.17922680      -3.41423490      -7.02757014
C        5.84507529      -1.95426428      -6.73445984
C        6.20881249      -1.57359685      -5.30158532
O        5.89707105      -0.19244413      -5.05479568
C        4.60131520       0.06769079      -4.73825537
O        3.70710307      -0.75479286      -4.66459457
C        4.43421721       1.52444762      -4.48431588
C        5.20161914       2.41610114      -5.24403057
C        5.04246139       3.77716709      -5.05021712
N        4.16430926       4.25603609      -4.13840425
C        3.41880486       3.40977367      -3.41196954
C        2.52730543       3.96055902      -2.50031029
C        1.71023130       3.16982647      -1.69022756
C        1.79093486       1.79093486      -1.79093486
C        2.67682710       1.20934558      -2.69546206
C        3.50341696       2.00858495      -3.53200061
C        5.80990105       4.79504938      -5.79975593
C        6.23681911       4.58663399      -7.12555982
C        6.97353540       5.55647144      -7.81626082
C        7.29207637       6.75798835      -7.19172915
C        6.87573271       7.00105817      -5.88764614
C        6.13950988       6.02783397      -5.20297646
H        6.01983728      -4.85556960      -8.62712479
H        6.28822715      -3.19383142      -9.18248151
H        4.69183779      -3.68396943      -8.58173303
H        7.25521969      -3.58214816      -6.90307293
H        5.66385826      -4.06511187      -6.31162478
H        4.77789157      -1.77347559      -6.90941708
H        6.37695486      -1.29402366      -7.43084645
H        7.28754384      -1.68628006      -5.14721810
H        5.71122316      -2.21871580      -4.56751495
H        5.91805934       2.04453199      -5.96933477
H        2.46469975       5.04411034      -2.41760571
H        1.02472155       3.64253538      -0.99214165
H        2.71953432       0.12370206      -2.74715513
H        5.98603730       3.66838620      -7.65226388
H        7.28625819       5.36371465      -8.83926071
H        7.11337076       7.93854760      -5.39216338
H        5.82077796       6.23654504      -4.18204025
C        8.05224173       7.75464232      -7.90055177
C        8.68888021       8.58934002      -8.49419071
Br       9.71827079       9.93897560      -9.45405467
C       -1.97500714     -10.52145994       2.09487387
C       -1.04664986      -9.84495847       1.09904628
C       -1.81805836      -8.94498111       0.13776862
C       -0.88119380      -8.22603650      -0.82957066
O       -1.63176830      -7.39611746      -1.73153684
C       -1.98320997      -6.17539292      -1.24865845
O       -1.73064936      -5.74951501      -0.13674041
C       -2.72629359      -5.42183404      -2.29485308
C       -3.56257885      -6.14373710      -3.15543491
C       -4.28954658      -5.46350920      -4.11678982
N       -4.20040212      -4.11859205      -4.23975542
C       -3.40840362      -3.41767902      -3.41446543
C       -3.36687923      -2.03944912      -3.58184639
C       -2.57069819      -1.21789770      -2.78168944
C       -1.79093486      -1.79093486      -1.79093486
C       -1.81063353      -3.17093542      -1.60006577
C       -2.62808440      -4.01249058      -2.40342755
C       -5.19407248      -6.13779825      -5.07283563
C       -5.89589251      -7.31270219      -4.74041822
C       -6.73879901      -7.94511298      -5.66235569
C       -6.89866807      -7.40767992      -6.93544588
C       -6.22999110      -6.24210841      -7.29233751
C       -5.38929205      -5.61478811      -6.36624016
H       -1.40197535     -11.16197432       2.77255721
H       -2.71507176     -11.14386784       1.58206237
H       -2.50829413      -9.78032985       2.69902260
H       -0.50105219     -10.61058923       0.53549696
H       -0.30370629      -9.25393422       1.64726934
H       -2.40529018      -8.21179200       0.70324912
H       -2.54691255      -9.53324387      -0.43362124
H       -0.34601439      -8.95758163      -1.44488585
H       -0.12262787      -7.63522212      -0.30217231
H       -3.63319923      -7.22354650      -3.07518037
H       -3.97675761      -1.58760273      -4.36205546
H       -2.57039210      -0.14368790      -2.94531859
H       -1.18342423      -3.59036092      -0.81660635
H       -5.81217886      -7.74769874      -3.74680979
H       -7.26667112      -8.85001250      -5.37254994
H       -6.35234415      -5.80990821      -8.28182938
H       -4.87446805      -4.70149131      -6.66340390
C       -7.76315575      -8.05923764      -7.88504242
C       -8.48716419      -8.60491722      -8.68032953
Br      -9.65782459      -9.48723497      -9.96624151
C       -1.96185012      10.52569351      -2.08595042
C       -1.03523834       9.84718580      -1.08986209
C       -1.80858742       8.94701231      -0.13032888
C       -0.87348288       8.22608233       0.83723574
O       -1.62586305       7.39600717       1.73755237
C       -1.97807302       6.17615414       1.25303419
O       -1.72479628       5.75117229       0.14093621
C       -2.72303323       5.42228089       2.29766660
C       -3.55946308       6.14415874       3.15812903
C       -4.28814243       5.46368802       4.11801515
N       -4.20052848       4.11855111       4.23967000
C       -3.40840028       3.41767269       3.41447510
C       -3.36848742       2.03922646       3.58046086
C       -2.57232868       1.21767921       2.78027744
C       -1.79093486       1.79093486       1.79093486
C       -1.80899566       3.17115346       1.60148561
C       -2.62640669       4.01272328       2.40487255
C       -5.19296212       6.13792361       5.07382063
C       -5.89320964       7.31390523       4.74189805
C       -6.73641805       7.94623386       5.66361576
C       -6.89817581       7.40764103       6.93597704
C       -6.23108713       6.24100089       7.29234900
C       -5.39007650       5.61376939       6.36647442
H       -1.38744399      11.16631568      -2.76236720
H       -2.70180024      11.14833846      -1.57326146
H       -2.49527867       9.78575060      -2.69142788
H       -0.48943121      10.61165884      -0.52494558
H       -0.29233961       9.25595838      -1.63792681
H       -2.39599282       8.21502635      -0.69718611
H       -2.53742384       9.53543938       0.44091443
H       -0.33818356       8.95642669       1.45387163
H       -0.11498332       7.63502677       0.31001221
H       -3.62887392       7.22412433       3.07892784
H       -3.97965041       1.58720365       4.35956173
H       -2.57331322       0.14329968       2.94278568
H       -1.18053218       3.59074071       0.81911862
H       -5.80800566       7.74984979       3.74883193
H       -7.26304378       8.85198541       5.37420436
H       -6.35492324       5.80789730       8.28126119
H       -4.87651530       4.69962652       6.66322144
C       -7.76297429       8.05911025       7.88535128
C       -8.48724301       8.60471572       8.68045220
Br      -9.65832429       9.48691363       9.96606315
C        7.15900248       3.96805858       7.21064932
C        7.34362691       3.37439577       5.82333091
C        6.81653634       1.94391850       5.75265301
C        6.95509184       1.36517147       4.34688059
O        6.46455717       0.01474294       4.30960836
C        5.11877088      -0.11565497       4.17283550
O        4.31863298       0.79840151       4.09667331
C        4.76163303      -1.55940359       4.12194409
C        5.51436421      -2.45017684       4.89720980
C        5.18309222      -3.79391607       4.89283731
N        4.15096428      -4.25761929       4.15016602
C        3.41895214      -3.41065383       3.41094210
C        2.36574338      -3.94359679       2.67883457
C        1.54663060      -3.15172599       1.87192874
C        1.79093486      -1.79093486       1.79093486
C        2.84112818      -1.22770687       2.51279968
C        3.67197366      -2.02622863       3.34580023
C        5.92066229      -4.81028969       5.67375438
C        6.52943880      -4.51149262       6.90808149
C        7.23470297      -5.48316577       7.62839894
C        7.33855771      -6.77649617       7.12673999
C        6.73908303      -7.10838225       5.91697174
C        6.03542899      -6.13276506       5.20212627
H        7.54437312       4.99205103       7.23907038
H        7.69463023       3.38137587       7.96362288
H        6.09988454       3.99680776       7.48652462
H        8.40770878       3.39248800       5.56092369
H        6.81828514       4.00124706       5.09333309
H        5.76599185       1.91760496       6.06544617
H        7.35469473       1.30362262       6.46270555
H        8.01206487       1.32516460       4.06158160
H        6.44439343       1.98213426       3.59776313
H        6.35200377      -2.09276762       5.48715471
H        2.17412337      -5.01341926       2.73887317
H        0.73171017      -3.60970786       1.31798055
H        3.00950291      -0.15677114       2.42411746
H        6.44897273      -3.51671071       7.34100394
H        7.69150714      -5.21903970       8.57868672
H        6.80834499      -8.11705805       5.51867870
H        5.57119473      -6.41164870       4.25651982
C        8.06623704      -7.77552704       7.86567173
C        8.67566848      -8.61221539       8.48452707
Br       9.66106757      -9.96506969       9.48516380
C       -0.00445707       0.01189536      -1.78238275
H       -0.66409135       0.67374010      -2.43557963
H        0.65740317      -0.63156657      -2.45157240
C       -0.90989263      -0.90692880      -0.91072765
C        0.90977584       0.90977584      -0.90977584
C       -0.00465871       1.77757030       0.00794375
H       -0.66225468       2.44313916      -0.64384735
H        0.64322798       2.43503045       0.67728295
C       -1.78241447       0.00034974      -0.00472694
H       -2.45427497      -0.65498947       0.64260836
H       -2.43311707       0.67328779      -0.65473579
C       -0.91132561       0.90220522       0.91563759
C       -0.01476271      -0.02253852       1.78660255
H       -0.67934791      -0.69751639       2.42135241
H        0.63392994       0.61504881       2.47327442
C        0.01484550      -1.77751727      -0.01636693
H        0.67870853      -2.42144646      -0.68295456
H       -0.62264859      -2.45592969       0.64226336
C        1.78714474       0.01002794       0.00389507
H        2.44202412       0.67113390       0.66197326
H        2.45385902      -0.65136977      -0.64189061
C        0.91606151      -0.90478549       0.90901405
