162
Properties=species:S:1:pos:R:3 pbc="F F F"
C        2.20361662      -0.30450539     -13.37165478
C        2.76573310      -0.06165896     -11.98131993
O        4.02389127       0.59437621     -12.13701590
C        4.73899919       0.84099680     -10.99254002
C        4.21978777       0.89827992      -9.69821805
C        5.07482579       1.19735464      -8.62920656
C        4.57615719       1.31316182      -7.24475539
N        3.33263785       1.13466169      -6.92296909
N        3.01638103       1.36340773      -5.60033831
C        3.49083286       2.43586505      -4.84033344
O        4.30502202       3.26367104      -5.24261773
C        2.92962336       2.49370849      -3.50448558
C        3.09722920       3.42547324      -2.49640681
C        2.35514264       2.96198222      -1.38367747
C        1.77716913       1.77716913      -1.77716913
O        2.10688926       1.48933289      -3.06534357
C        6.43860869       1.42862249      -8.84173246
C        6.95399746       1.37350679     -10.13428656
C        6.10501652       1.08988404     -11.20250108
O        6.59362857       1.04469427     -12.48388897
H        1.25655766      -0.84853801     -13.32239172
H        2.91082375      -0.87479714     -13.98325650
H        2.03604628       0.64770663     -13.88673017
H        2.90352590      -1.02142273     -11.47001629
H        2.06538456       0.56771879     -11.42260228
H        3.16482603       0.74190244      -9.49893990
H        5.34439270       1.54194203      -6.48431084
H        2.16685044       0.91148708      -5.27138675
H        3.69746836       4.32358062      -2.56709464
H        2.26353458       3.43225170      -0.41417670
H        7.09369981       1.66442748      -8.00641166
H        5.82004500       0.86298063     -13.05210068
C        8.35935707       1.62060564     -10.32795253
C        9.53634575       1.82755092     -10.49014779
Br      11.43943690       2.16216394     -10.75240379
C       -3.84961726       1.49043002     -12.91157878
C       -4.20675230       1.02994450     -11.50858627
O       -5.39525101       0.24527865     -11.60531102
C       -5.93308754      -0.21086598     -10.42858249
C       -5.25567422      -0.34498215      -9.21562937
C       -5.93507749      -0.86181363      -8.10449586
C       -5.26046160      -1.06602744      -6.80758537
N       -4.01383002      -0.77234221      -6.60409640
N       -3.51440073      -1.10361409      -5.36211226
C       -3.77186970      -2.30279295      -4.69236870
O       -4.53396849      -3.17541213      -5.10193017
C       -3.04786702      -2.43683881      -3.44311160
C       -2.98755879      -3.48664389      -2.54490657
C       -2.16950339      -3.05985311      -1.47144582
C       -1.77716913      -1.77716913      -1.77716913
O       -2.29210087      -1.39302917      -2.97643568
C       -7.28114902      -1.23425922      -8.19355540
C       -7.95433774      -1.10200450      -9.40544858
C       -7.27912318      -0.60124593     -10.51703254
O       -7.92344337      -0.47671239     -11.72205606
H       -2.96882463       2.13802572     -12.89961245
H       -4.68463929       2.03289584     -13.36753966
H       -3.64358005       0.62802917     -13.55493220
H       -4.38470548       1.90386461     -10.87127859
H       -3.37853755       0.43413134     -11.11129943
H       -4.20766817      -0.08289963      -9.11510057
H       -5.89983037      -1.46914776      -6.00166745
H       -2.68538682      -0.58941305      -5.07492440
H       -3.49020165      -4.43854923      -2.65939275
H       -1.90866340      -3.61838294      -0.58291664
H       -7.79894680      -1.63858872      -7.32700343
H       -7.25004159      -0.14036167     -12.34472304
C       -9.33737388      -1.49723376      -9.47330760
C      -10.49566665      -1.82823827      -9.53013954
Br     -12.36852810      -2.36344456      -9.62203197
C       -5.28427287      12.27202527      -2.28553213
C       -4.67537025      11.29968161      -1.28965779
O       -4.92022081      11.81707419       0.01798837
C       -4.38279262      11.11968671       1.07005668
C       -3.98564243       9.78179541       1.04884790
C       -3.48526800       9.19659367       2.21952532
C       -3.08908799       7.77555955       2.26942686
N       -3.16149426       6.98405819       1.24471617
N       -2.83387328       5.66548382       1.48076998
C       -3.23553069       4.93146266       2.60003800
O       -3.87025448       5.39780649       3.54324982
C       -2.83212174       3.53928845       2.55640724
C       -3.09283837       2.49797410       3.42829678
C       -2.41156213       1.36353873       2.92570147
C       -1.77716913       1.77716913       1.77716913
O       -2.03549743       3.09082663       1.53524166
C       -3.37045556       9.93689902       3.40160906
C       -3.76973456      11.27089810       3.42115815
C       -4.28083194      11.85363740       2.26293231
O       -4.69119954      13.16295438       2.26805790
H       -5.08952989      11.95422565      -3.31334418
H       -4.88094687      13.28002792      -2.14169168
H       -6.36756900      12.34060825      -2.13769416
H       -3.59638987      11.22270091      -1.46697132
H       -5.15046849      10.32139233      -1.41615519
H       -4.07709463       9.17330880       0.15526494
H       -2.69885888       7.42862491       3.24316178
H       -2.55737810       5.13198926       0.66035691
H       -3.69635308       2.56749273       4.32429781
H       -2.38219781       0.37182027       3.35594490
H       -2.98510815       9.47295912       4.30647168
H       -5.03324608      13.33294581       1.36893442
C       -3.64701111      12.01000799       4.65089614
C       -3.54423023      12.62901252       5.68080171
Br      -3.37804223      13.62989050       7.34607190
C        2.39764186     -13.33375179      -0.46062764
C        2.20239614     -12.09136824       0.39162968
O        2.63016109     -12.40928218       1.71584010
C        2.46697128     -11.43638246       2.66918228
C        2.31849229     -10.06963761       2.42815584
C        2.19677529      -9.19143599       3.51317571
C        2.07944851      -7.73248939       3.32213650
N        2.06636869      -7.17033576       2.15356418
N        2.03717520      -5.79162694       2.15132493
C        2.79642697      -4.97598618       2.99461820
O        3.52814312      -5.39438164       3.88878603
C        2.64669073      -3.55975670       2.72137000
C        3.27134909      -2.46239235       3.28536781
C        2.70933409      -1.31448589       2.67698234
C        1.77716913      -1.77716913       1.77716913
O        1.73945054      -3.13712301       1.78499217
C        2.21247883      -9.66731025       4.82917456
C        2.36333028     -11.03107700       5.06738352
C        2.49848520     -11.90703981       3.99187664
O        2.66121898     -13.25208828       4.20890456
H        2.04345588     -13.16867054      -1.48171505
H        1.86303453     -14.18794295      -0.03169437
H        3.45737775     -13.60907195      -0.49596662
H        1.14187833     -11.81415553       0.39608560
H        2.80439265     -11.27823647      -0.02692349
H        2.31976193      -9.66402383       1.42188260
H        1.97833014      -7.14187381       4.25044163
H        1.68791334      -5.36494749       1.29686345
H        4.03322726      -2.50150387       4.05341249
H        2.95067998      -0.27994231       2.87934069
H        2.12181404      -8.97767345       5.66505146
H        2.76371357     -13.64915743       3.32225531
C        2.38202228     -11.49562959       6.43026338
C        2.39767682     -11.88469237       7.57167526
Br       2.42298890     -12.51377400       9.41724174
C       -0.00445707       0.01189536      -1.78238275
H       -0.66409135       0.67374010      -2.43557963
H        0.65740317      -0.63156657      -2.45157240
C       -0.90989263      -0.90692880      -0.91072765
C        0.90977584       0.90977584      -0.90977584
C       -0.00465871       1.77757030       0.00794375
H       -0.66225468       2.44313916      -0.64384735
H        0.64322798       2.43503045       0.67728295
C       -1.78241447       0.00034974      -0.00472694
H       -2.45427497      -0.65498947       0.64260836
H       -2.43311707       0.67328779      -0.65473579
C       -0.91132561       0.90220522       0.91563759
C       -0.01476271      -0.02253852       1.78660255
H       -0.67934791      -0.69751639       2.42135241
H        0.63392994       0.61504881       2.47327442
C        0.01484550      -1.77751727      -0.01636693
H        0.67870853      -2.42144646      -0.68295456
H       -0.62264859      -2.45592969       0.64226336
C        1.78714474       0.01002794       0.00389507
H        2.44202412       0.67113390       0.66197326
H        2.45385902      -0.65136977      -0.64189061
C        0.91606151      -0.90478549       0.90901405
