133
Properties=species:S:1:pos:R:3 pbc="F F F"
C        0.00000000       0.00000000       0.00000000
C        1.29371259      -1.21440941     -12.46175075
C        1.85582908      -0.97156298     -11.07141590
O        3.11398725      -0.31552782     -11.22711187
C        3.82909517      -0.06890722     -10.08263599
C        3.30988375      -0.01162410      -8.78831402
C        4.16492177       0.28745061      -7.71930253
C        3.66625317       0.40325780      -6.33485136
N        2.42273383       0.22475767      -6.01306506
N        2.10647701       0.45350370      -4.69043429
C        2.58092884       1.52596102      -3.93042942
O        3.39511800       2.35376701      -4.33271371
C        2.01971934       1.58380446      -2.59458156
C        2.18732517       2.51556922      -1.58650279
C        1.44523861       2.05207819      -0.47377344
C        0.86726511       0.86726511      -0.86726511
O        1.19698524       0.57942886      -2.15543954
C        5.52870467       0.51871846      -7.93182844
C        6.04409343       0.46360276      -9.22438254
Br       7.89310645       0.78870744      -9.47918629
C        5.19511250       0.17998002     -10.29259705
O        5.68372455       0.13479025     -11.57398495
H        0.34665364      -1.75844204     -12.41248770
H        2.00091973      -1.78470116     -13.07335247
H        1.12614226      -0.26219740     -12.97682615
H        1.99362188      -1.93132676     -10.56011226
H        1.15548053      -0.34218523     -10.51269826
H        2.25492200      -0.16800158      -8.58903587
H        4.43448868       0.63203801      -5.57440682
H        1.25694641       0.00158306      -4.36148272
H        2.78756434       3.41367660      -1.65719061
H        1.35363055       2.52234768       0.49572732
H        6.18379578       0.75452346      -7.09650763
H        4.91014098      -0.04692339     -12.14219666
C      -11.00014303      -5.02799961       3.48708870
C       -9.64914559      -5.10283910       2.79630269
O       -9.70670042      -6.17802721       1.85915632
C       -8.55278636      -6.46495748       1.17491990
C       -7.47471744      -5.59864121       0.98678499
C       -6.37561711      -6.02622297       0.23016516
C       -5.22564811      -5.14057567      -0.03813855
N       -5.14614093      -3.92732090       0.41290527
N       -4.04622721      -3.20486034       0.00067254
C       -3.53929728      -3.19645491      -1.30156709
O       -3.97298214      -3.89015161      -2.21846497
C       -2.43181292      -2.27897623      -1.48731620
C       -1.72028692      -1.94418795      -2.62492231
C       -0.71180067      -1.03548304      -2.22380654
C       -0.86726511      -0.86726511      -0.86726511
O       -1.91522393      -1.60537042      -0.41125930
C       -6.34193964      -7.30900562      -0.32830631
C       -7.41981240      -8.17077663      -0.14148970
Br      -7.34633726      -9.89793405      -0.91672886
C       -8.52125400      -7.74524369       0.59880812
O       -9.59738909      -8.57667214       0.78156149
H      -11.00589041      -4.24902183       4.25421294
H      -11.25365865      -5.98706478       3.95115239
H      -11.78909283      -4.81051604       2.75883786
H       -8.86806746      -5.29526047       3.54092055
H       -9.46034007      -4.15235194       2.28669845
H       -7.47464641      -4.59146617       1.39015628
H       -4.41341340      -5.59054750      -0.63697261
H       -3.79593924      -2.41697378       0.59290082
H       -1.91133162      -2.32826079      -3.61883914
H        0.03875134      -0.57064003      -2.84836222
H       -5.48655680      -7.63049395      -0.91777612
H      -10.24482904      -8.05658107       1.29599587
C       -9.40970851       7.26648134      -4.13513591
C       -8.19863037       7.01121653      -3.25416490
O       -8.25829449       7.93410109      -2.16682427
C       -7.20767597       7.91991466      -1.28476669
C       -6.31334601       6.86571625      -1.09248860
C       -5.30813692       6.98749946      -0.12396147
C       -4.36006042       5.89072650       0.15357541
N       -4.38116269       4.75942156      -0.48002769
N       -3.48271403       3.80946759      -0.04176662
C       -3.21005475       3.52770884       1.29955569
O       -3.68801834       4.14522024       2.24836013
C       -2.29401927       2.41899472       1.48509137
C       -1.84108781       1.80813873       2.64017064
C       -0.92099552       0.80935568       2.24073904
C       -0.86726511       0.86726511       0.86726511
O       -1.70539578       1.82999215       0.39646572
C       -5.18483652       8.15194778       0.64246727
C       -6.07985374       9.20149140       0.45073360
Br      -5.89035680      10.76120073       1.50944264
C       -7.08981214       9.07974835      -0.50187092
O       -7.98819807      10.09882886      -0.69452719
H       -9.39782167       6.61858921      -5.01571159
H       -9.44005407       8.31136053      -4.46184357
H      -10.33351090       7.08293941      -3.57567930
H       -7.28334683       7.17401566      -3.83495510
H       -8.23784500       5.97908441      -2.89093585
H       -6.39024766       5.94190161      -1.65619297
H       -3.60460744       6.10563634       0.93068973
H       -3.25208124       3.08434273      -0.71641178
H       -2.14016431       2.07160896       3.64665829
H       -0.36194743       0.13907597       2.87922750
H       -4.40425756       8.23563838       1.39493093
H       -8.60737425       9.77549722      -1.37745723
C        1.27761357       1.20124672      12.46468709
C        1.84165171       0.96070041      11.07473069
O        3.10039790       0.30596343      11.23113684
C        3.81714236       0.06153332      10.08721490
C        3.29952245       0.00516431       8.79221552
C        4.15616981      -0.29164409       7.72386102
C        3.65926772      -0.40640671       6.33868790
N        2.41591849      -0.22899117       6.01564689
N        2.10148825      -0.45655065       4.69237610
C        2.57809754      -1.52755259       3.93166914
O        3.39278752      -2.35487322       4.33393798
C        2.01852914      -1.58448242       2.59509379
C        2.18841905      -2.51486082       1.58611731
C        1.44709697      -2.05093268       0.47306060
C        0.86726511      -0.86726511       0.86726511
O        1.19512957      -0.58055906       2.15616502
C        5.51997320      -0.52155699       7.93772138
C        6.03377509      -0.46735781       9.23094583
Br       7.88286873      -0.79058616       9.48754529
C        5.18320395      -0.18599330      10.29849232
O        5.67025401      -0.14173839      11.58050735
H        0.32997288       1.74422204      12.41494846
H        1.98342796       1.77164936      13.07779243
H        1.11055926       0.24823191      12.97844366
H        1.97891520       1.92122749      10.56471968
H        1.14270329       0.33115762      10.51444789
H        2.24461244       0.16053479       8.59187864
H        4.42866671      -0.63338644       5.57888036
H        1.25181348      -0.00524285       4.36295586
H        2.78963242      -3.41234382       1.65645531
H        1.35718416      -2.52016698      -0.49710023
H        6.17632434      -0.75560643       7.10289610
H        4.89578866       0.03839505      12.14802062
