185
Properties=species:S:1:pos:R:3 pbc="F F F"
C        0.00000000       0.00000000       0.00000000
C        0.88165839       0.88165839      -0.88165839
C        1.80753332       0.29296747      -1.74262198
C        2.61899982       1.09963918      -2.54251560
C        2.50756176       2.48658307      -2.47223536
O        3.34334701       3.20427214      -3.28130034
C        1.57766930       3.07500746      -1.60723138
C        1.43263733       4.53814625      -1.48300659
N        2.23626433       5.34644585      -2.09794255
N        2.00853608       6.67085155      -1.88263597
C        2.79086178       7.63912832      -2.50100191
O        3.71498483       7.38616108      -3.26980192
C        2.38918703       8.99191693      -2.16238111
C        2.75590248      10.20591828      -2.71008773
C        2.03933009      11.20415593      -2.01008985
C        1.29478147      10.55907578      -1.04232125
O        1.49682239       9.20227840      -1.13764231
C        0.40016093      11.08599578      -0.02835735
O        0.06940467      12.26847803       0.02413298
N       -0.02402694      10.12497025       0.88034964
N       -0.85824725      10.45781215       1.90455701
C       -1.16174742       9.49822191       2.71917533
C       -2.06171070       9.73108881       3.86599058
C       -2.36639259       8.64263572       4.69077669
C       -3.21948409       8.82565908       5.78001433
C       -3.76745319      10.07808590       6.05455946
C       -3.46030503      11.16235567       5.23135125
C       -2.61069691      10.98986765       4.14039408
O       -2.36264345      12.10210477       3.38488890
C        0.75646881       2.26931078      -0.81099066
H        1.90822319      -0.78847048      -1.79801474
H        3.34316116       0.64886215      -3.21679484
H        3.20991674       4.16290708      -3.10422591
H        0.61696157       4.90882044      -0.83587849
H        1.23745998       6.97386846      -1.29962072
H        3.44921766      10.33960283      -3.53066638
H        2.06528209      12.27470114      -2.17182864
H        0.33469993       9.18080451       0.79418366
H       -0.76491733       8.47529058       2.58894831
H       -1.94831780       7.66002961       4.49127021
H       -4.43227783      10.22267962       6.90224803
H       -3.88224760      12.14311487       5.43749550
H       -1.75865823      11.85622822       2.64751273
H        0.03220612       2.71245764      -0.13318872
C       -3.53789449       7.70663730       6.62854545
C       -3.80456320       6.76945656       7.33919027
Br      -4.23574394       5.25411456       8.48824283
C       -0.88165839      -0.88165839      -0.88165839
C       -1.96686511      -0.32127867      -1.55497899
C       -2.77742089      -1.12929650      -2.35443722
C       -2.50548285      -2.49078064      -2.47011671
O       -3.35099545      -3.21307131      -3.26485274
C       -1.41584113      -3.05084401      -1.79322299
C       -1.09564021      -4.48924037      -1.86890957
N       -1.87526051      -5.31833174      -2.48706047
N       -1.47751344      -6.61970392      -2.46480625
C       -2.21887361      -7.60350899      -3.10860941
O       -3.25377018      -7.38413704      -3.73304061
C       -1.63111877      -8.92484387      -2.98752243
C       -1.92671108     -10.10701522      -3.63818219
C       -1.02265543     -11.07949012      -3.15143032
C       -0.23932332     -10.45769549      -2.19915969
O       -0.60038493      -9.13444845      -2.10190972
C        0.82728438     -10.97796909      -1.36382935
O        1.29066512     -12.10857551      -1.49583933
N        1.25245083     -10.07799164      -0.39505285
N        2.23932398     -10.41554707       0.48121520
C        2.53393248      -9.52160924       1.37037760
C        3.58984389      -9.76595295       2.37272153
C        3.87263955      -8.74592737       3.28782139
C        4.86965597      -8.94059387       4.24477723
C        5.58259330     -10.13767269       4.29900615
C        5.29709981     -11.15405477       3.38625557
C        4.30446862     -10.96915287       2.42590760
O        4.08876489     -12.01323885       1.56990153
C       -0.59603418      -2.24217205      -0.99856402
H       -2.19258249       0.73865542      -1.46384038
H       -3.62524426      -0.70042980      -2.88314408
H       -3.09142042      -4.16129035      -3.22433896
H       -0.16981375      -4.82472827      -1.36711847
H       -0.61112417      -6.88694423      -2.01288077
H       -2.69772813     -10.23444251      -4.38731623
H       -0.95004741     -12.12044852      -3.44131595
H        0.78363984      -9.18213569      -0.32282494
H        2.01335849      -8.54796008       1.41317665
H        3.32695006      -7.80702764       3.25963598
H        6.35965183     -10.29118361       5.04337801
H        5.84722529     -12.09138556       3.42078851
H        3.37423427     -11.76447800       0.94018647
H        0.25148427      -2.66389182      -0.46544493
C        5.16556567      -7.89134178       5.18557875
C        5.41339003      -7.01259315       5.97350003
Br       5.81410107      -5.59173095       7.24750209
C       -0.88165839       0.88165839       0.88165839
C       -0.31955479       1.96160528       1.56196269
C       -1.12439765       2.76247370       2.37428325
C       -2.48115756       2.47612123       2.50910142
O       -3.19727475       3.30279755       3.32884719
C       -3.04289787       1.39159615       1.82541411
C       -4.46970871       1.03604589       1.94803556
N       -5.24613769       1.65498454       2.77953050
N       -6.53419211       1.21660277       2.81122873
C       -7.47027057       1.81234116       3.64838027
O       -7.22031697       2.75392806       4.39670279
C       -8.79021773       1.22035216       3.53291518
C      -10.01369341       1.64197081       4.01624426
C      -10.97224966       0.69544706       3.58587915
C      -10.28714019      -0.28106910       2.89010741
O       -8.95099066       0.04062487       2.84512757
C      -10.75876852      -1.49610155       2.25184708
O      -11.95060186      -1.77266884       2.13581670
N       -9.72949894      -2.31575969       1.80685441
N      -10.00146318      -3.50276238       1.19630708
C       -8.97210605      -4.21055755       0.85575066
C       -9.13537330      -5.51384665       0.18186088
C       -7.97880333      -6.21326182      -0.18007507
C       -8.09642408      -7.44535755      -0.82490586
C       -9.35027509      -7.98507353      -1.10912832
C      -10.50214584      -7.28618173      -0.74526473
C      -10.39558883      -6.05450734      -0.10230484
O      -11.57182196      -5.43560080       0.21835126
C       -2.24101770       0.59251209       1.00324046
H        0.74022845       2.18778292       1.47021297
H       -0.69432566       3.60661951       2.90787297
H       -4.12151759       2.97006714       3.38546500
H       -4.83936551       0.21447439       1.30782060
H       -6.84225578       0.47477232       2.19392106
H      -10.18265557       2.53971762       4.59711368
H      -12.03977502       0.70389925       3.76813759
H       -8.77173257      -2.03584760       1.98543581
H       -7.93947123      -3.86995857       1.05191228
H       -6.99410495      -5.80731157       0.03364821
H       -9.44404769      -8.94440358      -1.61149035
H      -11.48448109      -7.69899119      -0.96211814
H      -11.36944237      -4.57955328       0.66016816
H       -2.66307021      -0.25399114       0.46877341
C       -6.90801682      -8.16585269      -1.20196676
C       -5.91272573      -8.76926738      -1.51775526
Br      -4.30342423      -9.74493788      -2.02835856
C        0.88165839      -0.88165839       0.88165839
C        0.29418191      -1.72106443       1.82787643
C        1.10101709      -2.52089208       2.63924543
C        2.48708333      -2.47194365       2.50735323
O        3.20517122      -3.27933204       3.34441623
C        3.07429284      -1.62855064       1.55706466
C        4.53681777      -1.52722534       1.38974704
N        5.34776605      -2.14226560       2.19062108
N        6.67168685      -1.94906211       1.94127464
C        7.64222876      -2.57010917       2.71865408
O        7.39167802      -3.32217606       3.65709375
C        8.99378102      -2.25646292       2.29324113
C       10.20507140      -2.81620043       2.65063665
C       11.20273330      -2.14062166       1.91022091
C       10.56076772      -1.17431434       1.16109644
O        9.20578071      -1.24745569       1.38350670
C       11.08907920      -0.18061997       0.24481489
O       12.26735134      -0.14962561      -0.10322723
N       10.13496468       0.73563578      -0.17873524
N       10.47024094       1.74318378      -1.03204928
C        9.51795907       2.56704393      -1.33361598
C        9.75406568       3.69767597      -2.25300217
C        8.67307268       4.53352056      -2.55408568
C        8.85920476       5.60795456      -3.42508954
C       10.10743202       5.85691305      -3.99444574
C       11.18429982       5.02274025      -3.69086018
C       11.00862721       3.94638811      -2.82346245
O       12.11356583       3.17867668      -2.58031672
C        2.26824257      -0.83252573       0.73600194
H       -0.78638352      -1.75963032       1.94452065
H        0.65117552      -3.17844776       3.37919486
H        4.16420057      -3.11781959       3.19502957
H        4.90488791      -0.89695959       0.55981299
H        6.97184816      -1.38130653       1.15779447
H       10.33708086      -3.62878334       3.35362268
H       12.27116284      -2.31721044       1.92343858
H        9.19488686       0.66797114       0.19440506
H        8.49905538       2.45698390      -0.92064654
H        7.69381588       4.35391894      -2.11945535
H       10.25443162       6.69303725      -4.67324061
H       12.16174819       5.20895031      -4.12942612
H       11.86598619       2.45343097      -1.96249796
H        2.71050352      -0.17134081      -0.00399185
C        7.74778709       6.46778199      -3.73980774
C        6.81697480       7.18788747      -4.00338423
Br       5.31193003       8.35223712      -4.42956513
