185
Properties=species:S:1:pos:R:3 pbc="F F F"
C        0.00000000       0.00000000       0.00000000
O        8.85495062      10.04150248      -6.29229757
C        8.76156435       8.88169223      -6.66961587
N        8.73364549       7.78532335      -5.84362086
C        8.84165267       7.89405296      -4.40526922
C        7.99335005       6.83698265      -3.70527702
C        6.50315061       7.04588689      -3.96551790
N        5.70437800       6.07587626      -3.24147927
C        4.98318435       5.09264601      -3.87650823
O        4.98470003       4.89425531      -5.08313577
C        4.18158136       4.28008146      -2.92582752
C        3.32736215       3.34756722      -3.37534673
C        2.49848160       2.51277308      -2.49311269
C        2.95991010       2.05060427      -1.25170967
C        2.15260046       1.24377426      -0.44435475
C        0.88158978       0.88158978      -0.88158978
C        0.41369050       1.31350598      -2.12008865
C        1.22333644       2.12237027      -2.92469088
C        8.66649748       8.49833371      -8.10003490
C        8.75986864       9.41481687      -9.07380923
C        8.67234410       9.06756152     -10.49935229
C        8.05982477       9.95974529     -11.38842959
C        7.96970489       9.65632127     -12.75123274
C        8.50253995       8.46216360     -13.23185128
Br       8.37762837       8.04597226     -15.07103662
C        9.13283116       7.57362184     -12.36588536
C        9.22414055       7.88096663     -11.00635074
H        8.76027450       6.85876241      -6.24949477
H        8.55798296       8.90027573      -4.07834367
H        9.89803387       7.74786222      -4.15528692
H        8.18765873       6.87928446      -2.62657296
H        8.28981879       5.83434663      -4.03909359
H        6.28151339       6.98251343      -5.03592302
H        6.19125820       8.03533860      -3.61523279
H        5.62774983       6.18803243      -2.24038211
H        4.30339622       4.47759714      -1.86928434
H        3.19938348       3.19309859      -4.44582385
H        3.95770102       2.30076467      -0.90006422
H        2.52826066       0.90068649       0.51597511
H       -0.57484503       1.02766437      -2.46990542
H        0.84267054       2.45152199      -3.88970988
H        8.49951148       7.45184875      -8.32261838
H        8.88738310      10.46870467      -8.83158211
H        7.63549577      10.89460492     -11.02745375
H        7.48234376      10.35605486     -13.42495344
H        9.55912967       6.64431309     -12.73394133
H        9.73943610       7.18249996     -10.35152288
O       -6.58220592      -8.20606165     -10.40048309
C       -6.75169766      -8.36202359      -9.19915119
N       -5.75401676      -8.35261646      -8.25595648
C       -4.36029396      -8.17879617      -8.60188473
C       -3.61800062      -7.38953888      -7.52807022
C       -4.13741554      -5.95758450      -7.41955536
N       -3.38003015      -5.19869578      -6.44300761
C       -3.92829516      -4.76477740      -5.25926603
O       -5.06382595      -5.01650780      -4.88175735
C       -2.97990725      -3.93769689      -4.46988619
C       -3.37764692      -3.33300445      -3.33962472
C       -2.49587082      -2.49531110      -2.51318545
C       -1.13520603      -2.78820126      -2.33881675
C       -0.32793980      -1.98080979      -1.53197989
C       -0.88158978      -0.88158978      -0.88158978
C       -2.23491519      -0.58652687      -1.02584307
C       -3.03952015      -1.39537386      -1.83550358
C       -8.08569894      -8.58909616      -8.59007099
C       -9.18409433      -8.71659010      -9.34781032
C      -10.51878022      -8.94456123      -8.77591646
C      -11.63877614      -8.37477451      -9.39444900
C      -12.92091084      -8.58207105      -8.87427701
C      -13.08840729      -9.37032287      -7.73782467
Br     -14.81800926      -9.64791555      -7.02871243
C      -11.98879492      -9.96102181      -7.12252163
C      -10.71036649      -9.75487457      -7.64621686
H       -5.97532497      -8.59456080      -7.29864591
H       -4.26960656      -7.68936991      -9.57762589
H       -3.92881757      -9.18166397      -8.69070148
H       -2.54823540      -7.37524792      -7.77003283
H       -3.71407075      -7.89210105      -6.55708721
H       -5.19947412      -5.94705391      -7.15342181
H       -4.02531491      -5.43906478      -8.37744990
H       -2.43992788      -4.92468676      -6.69154973
H       -1.97106311      -3.83322483      -4.84598976
H       -4.40881194      -3.42742492      -3.00206905
H       -0.68618745      -3.65484137      -2.81750108
H        0.72488827      -2.22333811      -1.41452221
H       -2.67423745       0.26598365      -0.51447095
H       -4.09513146      -1.15097601      -1.93779495
H       -8.13684470      -8.62800185      -7.50913206
H       -9.12127399      -8.63463435     -10.43176154
H      -11.52359514      -7.75348069     -10.28047862
H      -13.77748653      -8.12413010      -9.36173544
H      -12.11156145     -10.58466681      -6.24115583
H       -9.86808552     -10.24319367      -7.16217975
O      -10.60875570       7.26647049       7.31352447
C       -9.48519769       7.07156703       7.75610772
N       -8.80350636       5.88242595       7.67665739
C       -9.37292316       4.70037005       7.06768165
C       -8.30621338       3.87906086       6.35033548
C       -7.71225169       4.63712818       5.16517553
N       -6.74831489       3.82134703       4.45207161
C       -5.40431103       4.11042829       4.43759927
O       -4.87989283       5.02491930       5.05727897
C       -4.63798526       3.17934276       3.57016231
C       -3.32992362       3.37676953       3.34358294
C       -2.51200739       2.50062576       2.49173422
C       -2.71015174       1.11297826       2.43909404
C       -1.90325583       0.30585316       1.63162048
C       -0.88158978       0.88158978       0.88158978
C       -0.65606648       2.25471941       0.93649924
C       -1.46656315       3.05979419       1.74404026
C       -8.69497186       8.11585135       8.45404288
C       -9.21285400       9.32542560       8.71021514
C       -8.45770440      10.38012799       9.40142552
C       -8.65335448      11.71811308       9.03653209
C       -7.95227421      12.74155065       9.68343405
C       -7.05953706      12.43031732      10.70670045
Br      -6.10626925      13.80938185      11.57898614
C       -6.86827669      11.10801033      11.09605134
C       -7.57220611      10.08876314      10.45048867
H       -7.92170910       5.78370316       8.16311942
H      -10.17852664       4.97849488       6.37958085
H       -9.81507744       4.10920774       7.87689784
H       -8.75302719       2.94061392       5.99987504
H       -7.50748207       3.60453490       7.05124205
H       -7.23765983       5.56702649       5.49526351
H       -8.49773938       4.89639654       4.44769367
H       -7.10470943       3.06077775       3.89067720
H       -5.17411505       2.35293598       3.12322667
H       -2.82270624       4.23659377       3.77900590
H       -3.48618851       0.63815671       3.03418468
H       -2.07725673      -0.76649087       1.60220619
H        0.14491039       2.70871797       0.35891717
H       -1.27721539       4.13108324       1.77560379
H       -7.67797621       7.86628637       8.72971603
H      -10.22358500       9.57379212       8.39029276
H       -9.34435566      11.97666130       8.23653749
H       -8.10951782      13.77332509       9.38050915
H       -6.18071065      10.85735633      11.89931711
H       -7.42333790       9.06501724      10.78510381
O        8.49694108      -6.43165953      10.26015005
C        7.78950336      -7.04800893       9.47536015
N        6.49797347      -6.71389835       9.15071788
C        5.81687061      -5.58272268       9.74138157
C        4.87703993      -4.91835950       8.74021029
C        5.64208714      -4.30070309       7.57176517
N        4.74428186      -3.61521480       6.66223688
C        4.50573277      -4.06236526       5.38424056
O        4.96250365      -5.09177612       4.90781133
C        3.61921681      -3.14473852       4.62353500
C        3.36805523      -3.35950618       3.32271468
C        2.50719030      -2.48972267       2.50745441
C        1.35902798      -1.87488322       3.02831284
C        0.55207951      -1.06738771       2.22126225
C        0.88158978      -0.88158978       0.88158978
C        2.00604847      -1.50023328       0.34100338
C        2.81249244      -2.30608194       1.15182321
C        8.24248401      -8.26509014       8.75729194
C        9.44494149      -8.80713170       8.99642155
C        9.92200596     -10.01289785       8.30435411
C       11.28189908     -10.13417641       7.99192417
C       11.76285129     -11.27467898       7.33972864
C       10.88533744     -12.30430242       7.00691496
Br      11.53006755     -13.84389022       6.12067947
C        9.53462198     -12.20948071       7.32823568
C        9.05810929     -11.07098154       7.98236710
H        5.95456895      -7.34166856       8.57229417
H        6.54458541      -4.86209664      10.12992032
H        5.24261069      -5.96749819      10.59107415
H        4.29946175      -4.14012695       9.25392744
H        4.15172611      -5.64992420       8.36160870
H        6.20706782      -5.06490236       7.02797965
H        6.35323789      -3.55217915       7.93641256
H        4.34680507      -2.73901401       6.97034529
H        3.19992431      -2.29883158       5.15152180
H        3.83087557      -4.20000364       2.80742670
H        1.06868493      -2.02466821       4.06517677
H       -0.33038658      -0.59680724       2.64655139
H        2.26398291      -1.36483811      -0.70609627
H        3.68774868      -2.78220957       0.71394417
H        7.56977892      -8.68453431       8.01966537
H       10.12585688      -8.34948284       9.71233017
H       11.97891802      -9.33669474       8.24194169
H       12.81953887     -11.34734960       7.09646360
H        8.84505184     -13.01190959       7.08042266
H        8.00337255     -11.02731835       8.24276804
