125
Properties=species:S:1:pos:R:3 pbc="F F F"
C        0.00000000       0.00000000       0.00000000
C        0.88179957       0.88179957      -0.88179957
C        0.71844648       2.26717017      -0.85356042
C        1.51990093       3.08063393      -1.65820230
C        2.48190392       2.50106090      -2.48647127
O        3.26941625       3.29735152      -3.27073211
C        2.64649326       1.11189850      -2.51120379
C        3.67577071       0.50349108      -3.37833161
N        3.91089375      -0.77011975      -3.35690527
N        4.89542687      -1.19721417      -4.19905527
C        5.25346960      -2.53577886      -4.23939177
O        4.71734953      -3.39632808      -3.54426714
C        6.30104655      -2.85762088      -5.18974917
C        7.22593259      -2.08637403      -5.86548317
C        7.98759071      -2.96320099      -6.64776438
N        7.59107197      -4.22629915      -6.50012262
N        6.58031460      -4.14538356      -5.60658966
C        5.90103542      -5.36278123      -5.21881880
C        1.84202306       0.29750275      -1.70500787
H       -0.02972509       2.72076115      -0.20753508
H        1.37944038       4.15728268      -1.62231155
H        3.04125404       4.22953239      -3.11122973
H        4.24207885       1.18227955      -4.04097809
H        5.35922666      -0.52705887      -4.79922521
H        8.81192847      -2.74674690      -7.31576861
H        6.15179578      -5.57983559      -4.17766843
H        6.23707989      -6.18351159      -5.85837381
H        4.82490994      -5.22516789      -5.35092287
H        1.96754332      -0.78373664      -1.72167492
C        7.46563382      -0.66691311      -5.82978964
C        7.66638360       0.52188540      -5.79989632
Br       7.99097902       2.44407206      -5.75156134
C       -0.88179957      -0.88179957      -0.88179957
C       -1.49900277      -2.00661991      -0.33355438
C       -2.30583153      -2.81920088      -1.13370475
C       -2.49064087      -2.49937773      -2.47941750
O       -3.28385110      -3.29205568      -3.26159309
C       -1.87350439      -1.36932310      -3.02676805
C       -2.08349995      -1.02618489      -4.44790856
N       -1.59782761       0.06002049      -4.95987216
N       -1.87699745       0.25985276      -6.28012326
C       -1.43374933       1.40320544      -6.92653861
O       -0.77555447       2.27866235      -6.36839648
C       -1.78408490       1.48283243      -8.33192236
C       -2.70627857       0.81107568      -9.10983885
C       -2.59028301       1.32528893     -10.40716003
N       -1.65413545       2.27008541     -10.48084540
N       -1.18661094       2.36113965      -9.21604941
C       -0.12881630       3.30806411      -8.93632080
C       -1.06430431      -0.55614006      -2.22408931
H       -1.35737458      -2.25659735       0.71540079
H       -2.77930523      -3.69023091      -0.68949848
H       -3.65082778      -4.01170905      -2.71947933
H       -2.67906612      -1.73205214      -5.05421823
H       -2.40727315      -0.43851724      -6.78560260
H       -3.14099800       1.06148788     -11.30144005
H       -0.54044673       4.11157272      -8.32075460
H        0.24637409       3.71916505      -9.87748125
H        0.68507168       2.78857550      -8.42431211
H       -0.58275083       0.32397913      -2.64670992
C       -3.66052092      -0.20877085      -8.75921858
C       -4.45969890      -1.06289233      -8.46557410
Br      -5.75190209      -2.44393451      -7.99077582
C       -0.88179957       0.88179957       0.88179957
C       -1.57558330       1.95045439       0.31313938
C       -2.38298527       2.76270743       1.11304446
C       -2.49156023       2.49882863       2.47904724
O       -3.28524324       3.29098620       3.26127043
C       -1.79763607       1.42490542       3.04705405
C       -1.92683792       1.14018969       4.49056579
N       -1.36776611       0.10241737       5.02749579
N       -1.57731978      -0.04718828       6.36713646
C       -1.05181364      -1.13754575       7.04281460
O       -0.37883590      -2.00780970       6.49426240
C       -1.33422047      -1.16639083       8.46534520
C       -2.25108854      -0.50091759       9.25487078
C       -2.05249797      -0.94748453      10.56714066
N       -1.07037381      -1.84453647      10.63905810
N       -0.65661798      -1.97407541       9.35897813
C        0.43104635      -2.88446438       9.07258373
C       -0.98795348       0.61203910       2.24454109
H       -1.49340526       2.15671340      -0.75154752
H       -2.91665753       3.58951702       0.65286006
H       -3.70990982       3.96692100       2.70518534
H       -2.52713227       1.84632895       5.09187526
H       -2.11665875       0.64965057       6.86508368
H       -2.57414995      -0.66683294      11.47363317
H        0.03049365      -3.73392269       8.51404496
H        0.86733313      -3.23327608      10.01255132
H        1.19553921      -2.35355824       8.49976238
H       -0.44676317      -0.22449581       2.68321424
C       -3.26731224       0.45711919       8.90407893
C       -4.11839959       1.25947498       8.61029075
Br      -5.49453586       2.55681645       8.13526011
C        0.88179957      -0.88179957       0.88179957
C        1.35210749      -0.38801182       2.09905776
C        2.16042820      -1.18760908       2.91069987
C        2.49238487      -2.47877095       2.49828027
O        3.27982273      -3.26308649       3.29459064
C        2.01732805      -2.97344934       1.27881816
C        2.35895656      -4.34579050       0.85284633
N        1.86277794      -4.86164902      -0.22674769
N        2.25219446      -6.14102916      -0.49595567
C        1.76121441      -6.80513983      -1.60927173
O        0.97308009      -6.29516922      -2.40296071
C        2.26879905      -8.15222776      -1.78785197
C        2.91568605      -9.03220671      -0.94285103
C        3.15622500     -10.19735241      -1.68142330
N        2.70125588     -10.09265394      -2.92901438
N        2.15721951      -8.85622264      -2.97192145
C        1.56663375      -8.40328904      -4.21284979
C        1.20801218      -2.17081351       0.46570798
H        1.09317543       0.61745613       2.42285184
H        2.51647614      -0.78693522       3.85562324
H        3.49669205      -2.77662096       4.10870315
H        3.05024675      -4.91661309       1.49847664
H        2.90844348      -6.59980731       0.12314220
H        3.63757765     -11.11734664      -1.37397411
H        0.48426953      -8.34158077      -4.07622169
H        1.79845521      -9.11941633      -5.00592943
H        1.99307624      -7.43146151      -4.47387281
H        0.83652561      -2.55262981      -0.48367381
C        3.29284232      -8.89552543       0.44014260
C        3.60871069      -8.78105486       1.59839977
Br       4.11944314      -8.59596564       3.47120364
