117
Properties=species:S:1:pos:R:3 pbc="F F F"
C        0.00000000       0.00000000       0.00000000
C        0.88179957       0.88179957      -0.88179957
C        0.71844648       2.26717017      -0.85356042
C        1.51990093       3.08063393      -1.65820230
C        2.48190392       2.50106090      -2.48647127
O        3.26941625       3.29735152      -3.27073211
C        2.64649326       1.11189850      -2.51120379
C        3.67577071       0.50349108      -3.37833161
N        3.91089375      -0.77011975      -3.35690527
N        4.89542687      -1.19721417      -4.19905527
C        5.25346960      -2.53577886      -4.23939177
O        4.71734953      -3.39632808      -3.54426714
C        6.30104655      -2.85762088      -5.18974917
C        7.22593259      -2.08637403      -5.86548317
Br       7.53785409      -0.23923970      -5.81903544
C        7.98759071      -2.96320099      -6.64776438
N        7.59107197      -4.22629915      -6.50012262
N        6.58031460      -4.14538356      -5.60658966
C        5.90103542      -5.36278123      -5.21881880
C        1.84202306       0.29750275      -1.70500787
H       -0.02972509       2.72076115      -0.20753508
H        1.37944038       4.15728268      -1.62231155
H        3.04125404       4.22953239      -3.11122973
H        4.24207885       1.18227955      -4.04097809
H        5.35922666      -0.52705887      -4.79922521
H        8.81192847      -2.74674690      -7.31576861
H        6.15179578      -5.57983559      -4.17766843
H        6.23707989      -6.18351159      -5.85837381
H        4.82490994      -5.22516789      -5.35092287
H        1.96754332      -0.78373664      -1.72167492
C       -0.88179957      -0.88179957      -0.88179957
C       -1.39954298      -0.36829972      -2.07133438
C       -2.20819611      -1.16781275      -2.88272829
C       -2.49292371      -2.47862001      -2.49789238
O       -3.28069691      -3.26269497      -3.29410799
C       -1.97034862      -2.99293644      -1.30631049
C       -2.26213579      -4.38550382      -0.90995378
N       -1.72181356      -4.91655885       0.14069313
N       -2.06831186      -6.21328939       0.38433329
C       -1.52817457      -6.89355205       1.46464412
O       -0.73226600      -6.38351890       2.25049630
C       -1.99344742      -8.25878355       1.61905614
C       -2.63952940      -9.13315703       0.76764470
Br      -3.18548762      -8.91996520      -1.01219701
C       -2.82717715     -10.32440331       1.47942635
N       -2.34029685     -10.24114143       2.71654284
N       -1.82933331      -8.99152045       2.77933306
C       -1.21666548      -8.55629102       4.01588350
C       -1.16074296      -2.19039938      -0.49339133
H       -1.17746405       0.65255076      -2.37365784
H       -2.60154930      -0.75159582      -3.80588949
H       -3.53364502      -2.76041601      -4.08795513
H       -2.95543945      -4.95766983      -1.55222721
H       -2.72892275      -6.67323737      -0.22923288
H       -3.29162031     -11.24882158       1.15949171
H       -0.14067368      -8.46041152       3.85145659
H       -1.40636456      -9.30011270       4.79453515
H       -1.66204366      -7.60436965       4.31574838
H       -0.75235396      -2.58746067       0.43433302
C       -0.88179957       0.88179957       0.88179957
C       -0.86722777       0.70608171       2.26586759
C       -1.67197547       1.50745918       3.07930251
C       -2.48664011       2.48177655       2.50101943
O       -3.27097872       3.26918331       3.29733784
C       -2.49766123       2.65873279       1.11320152
C       -3.35033811       3.70091504       0.50634025
N       -3.31560698       3.94698030      -0.76490800
N       -4.14530097       4.94261380      -1.19064681
C       -4.17067817       5.31270333      -2.52629900
O       -3.47270059       4.77801916      -3.38543115
C       -5.10894885       6.37141004      -2.84718405
C       -5.78334522       7.29544066      -2.07374415
Br      -5.75048368       7.59075739      -0.22359124
C       -6.55115429       8.07162477      -2.95062496
N       -6.39583996       7.68489036      -4.21583487
N       -5.51193922       6.66561139      -4.13602991
C       -5.11939334       5.99361760      -5.35593794
C       -1.69137778       1.85433424       0.29882165
H       -0.23180809      -0.05170838       2.71847143
H       -1.64682573       1.35726716       4.15494172
H       -3.12171879       3.03146945       4.22882792
H       -4.01397053       4.26708932       1.18427664
H       -4.74728283       5.40581146      -0.52170129
H       -7.21380199       8.89990347      -2.73275528
H       -4.07421128       6.23706364      -5.56164631
H       -5.74870863       6.34246937      -6.17923589
H       -5.26212332       4.91753731      -5.22899570
H       -1.69739556       1.98945754      -0.78137149
C        0.88179957      -0.88179957       0.88179957
C        1.11957853      -2.20632958       0.51326896
C        1.92368520      -3.01991574       1.31513622
C        2.48624545      -2.50111255       2.48207810
O        3.27689187      -3.29594273       3.26466527
C        2.24932232      -1.17179301       2.84848022
C        2.85855434      -0.62236854       4.07667052
N        2.72965967       0.62666337       4.39468298
N        3.35268844       1.00364292       5.54822244
C        3.30764087       2.32267955       5.97212118
O        2.71548487       3.20677856       5.35658229
C        3.99576127       2.58454575       7.22195931
C        4.93134677       1.87272913       7.94642409
Br       5.74634412       0.22261458       7.59392029
C        5.23359043       2.63976744       9.07833111
N        4.54312265       3.77871669       9.10048949
N        3.81040874       3.73458178       7.96569374
C        2.91926122       4.83685295       7.67466473
C        1.44246548      -0.35754841       2.04451978
H        0.68325112      -2.61196087      -0.39664086
H        2.09881142      -4.04830313       1.01192006
H        3.35624411      -4.17349553       2.85227652
H        3.43546355      -1.32076585       4.70910709
H        3.84458374       0.30872429       6.09553355
H        5.92260657       2.42811896       9.88646256
H        3.31681754       5.38295171       6.81576278
H        2.86906956       5.49983241       8.54270496
H        1.92140144       4.44080731       7.47007081
H        1.25619043       0.67727640       2.32656757
