138
Properties=species:S:1:pos:R:3 pbc="F F F"
C        1.79175707       1.79175707      -1.79175707
C        2.98129755       2.31200835      -1.27914906
C        3.78758085       3.12047765      -2.08297176
C        3.39745689       3.39420789      -3.39768943
C        2.19818634       2.88453777      -3.90799419
C        1.39615183       2.07438097      -3.10047156
S        4.39668722       4.46741423      -4.40221746
O        3.54712444       5.01705272      -5.44087500
O        5.16690813       5.32763848      -3.52776027
N        5.43253990       3.37094148      -5.17228257
N        6.36480205       2.58082515      -4.42346820
C        7.12118246       1.73481022      -5.06647473
C        7.07088020       1.57037003      -6.57063044
C        8.04275127       0.93475586      -4.27192922
C        8.58298273       1.25259661      -3.03522142
C        9.44398761       0.23230421      -2.52984072
C        9.50199988      -0.83231801      -3.39091413
Br      10.51690058      -2.37231345      -3.06821425
S        8.55774968      -0.62140133      -4.77973035
H        3.28531230       2.09857872      -0.25714892
H        4.71260702       3.53135878      -1.68367263
H        1.87899434       3.11598229      -4.92136457
H        0.46448653       1.67630036      -3.49538064
H        5.24228088       3.25923285      -6.16865547
H        6.11144307       1.12865499      -6.85539039
H        7.87796983       0.94576519      -6.95837442
H        7.16953752       2.55137606      -7.04807635
H        8.37726830       2.18596349      -2.52237142
H        9.97614364       0.28791261      -1.58839842
C       -1.79175707      -1.79175707      -1.79175707
C       -3.14497189      -1.48453449      -1.94294858
C       -3.95334861      -2.29098412      -2.74669752
C       -3.39546764      -3.39519324      -3.39869334
C       -2.04204865      -3.71206606      -3.23660360
C       -1.23702998      -2.90079877      -2.43317561
S       -4.43652005      -4.45220137      -4.37759749
O       -3.79209258      -5.74827132      -4.46468826
O       -5.79866470      -4.32051496      -3.90312723
N       -4.30392514      -3.75604936      -5.91578944
N       -4.77288410      -2.42586268      -6.17034863
C       -4.62290368      -1.93152957      -7.36803416
C       -3.99603028      -2.71217958      -8.50367080
C       -5.09309523      -0.57057690      -7.58576422
C       -6.08464812       0.09979380      -6.88594643
C       -6.28565833       1.43336354      -7.35383775
C       -5.41950151       1.73197633      -8.37307082
Br      -5.36835149       3.39240143      -9.23685132
S       -4.39092869       0.44897166      -8.77412167
H       -3.57881760      -0.62545171      -1.43677064
H       -5.00959480      -2.05634538      -2.86169825
H       -1.61042416      -4.58435142      -3.72156562
H       -0.18485401      -3.14448599      -2.30682754
H       -3.77108172      -4.32253296      -6.57655452
H       -2.93373578      -2.86786980      -8.29388287
H       -4.09753090      -2.21452083      -9.47005771
H       -4.49010443      -3.68581116      -8.59307434
H       -6.65028185      -0.35527628      -6.08004508
H       -7.02008606       2.12098682      -6.95335544
C       -1.79175707       1.79175707       1.79175707
C       -1.40494049       2.06208716       3.10542731
C       -2.21106132       2.86599055       3.91397838
C       -3.39543052       3.39869588       3.39522782
C       -3.79106590       3.11684977       2.08280264
C       -2.97994624       2.31383951       1.27721862
S       -4.44781362       4.37682423       4.44168106
O       -5.78766539       4.32805296       3.88933381
O       -4.18928886       4.01331992       5.81969811
N       -3.87667451       5.94504296       4.15404648
N       -2.53981703       6.32324497       4.50603341
C       -2.14576812       7.53764168       4.23905761
C       -3.04826909       8.56856326       3.59504832
C       -0.77552129       7.88138509       4.59252996
C        0.01022379       7.30325750       5.57776705
C        1.31659123       7.87435777       5.64836600
C        1.48016029       8.84548522       4.69527107
Br       3.06561477       9.81431833       4.46409781
S        0.10417687       9.08189800       3.73835757
H       -0.48358446       1.64869881       3.50875668
H       -1.91404975       3.07364777       4.93994091
H       -4.72385548       3.50839144       1.68409429
H       -3.28485382       2.09457300       0.25674072
H       -4.52494642       6.52493800       3.62028478
H       -3.26020737       8.27152962       2.56375146
H       -2.61686297       9.57143787       3.59380860
H       -3.98990424       8.62732265       4.15176305
H       -0.34509440       6.51175629       6.22875252
H        2.08009397       7.57643758       6.35611106
C        1.79175707      -1.79175707       1.79175707
C        2.11027876      -1.37640824       3.08576797
C        2.91841278      -2.18002428       3.89259319
C        3.39428169      -3.39804398       3.39702855
C        3.08698064      -3.80875017       2.09498749
C        2.27625597      -3.00219790       1.29255050
S        4.46712079      -4.39435275       4.40484537
O        5.23145093      -5.25280075       3.52080048
O        5.12222977      -3.53274912       5.36732799
N        3.36721578      -5.40289955       5.20564861
N        2.39255792      -4.86701455       6.10952294
C        1.55466860      -5.68803947       6.67975934
C        1.58449430      -7.18324797       6.44413839
C        0.56571907      -5.10682511       7.57689217
C        0.66637375      -3.91920107       8.28522594
C       -0.49725238      -3.63989351       9.06349141
C       -1.44679084      -4.61347144       8.89391540
Br      -3.11722848      -4.59062020       9.73940965
S       -0.96266295      -5.84279297       7.83594868
H        1.73964223      -0.42974061       3.47165710
H        3.17225079      -1.85567097       4.89971667
H        3.47598423      -4.74304244       1.69731453
H        2.03522820      -3.31998942       0.28094991
H        3.40151136      -6.37419838       4.89445946
H        1.28984042      -7.39377730       5.41187073
H        0.92772501      -7.73444850       7.11993594
H        2.60024109      -7.55829039       6.61045845
H        1.54590271      -3.28517128       8.25452921
H       -0.61771094      -2.77132307       9.69884255
C       -0.00445707       0.01189536      -1.78238275
H       -0.66409135       0.67374010      -2.43557963
H        0.65740317      -0.63156657      -2.45157240
C       -0.90989263      -0.90692880      -0.91072765
C        0.90977584       0.90977584      -0.90977584
C       -0.00465871       1.77757030       0.00794375
H       -0.66225468       2.44313916      -0.64384735
H        0.64322798       2.43503045       0.67728295
C       -1.78241447       0.00034974      -0.00472694
H       -2.45427497      -0.65498947       0.64260836
H       -2.43311707       0.67328779      -0.65473579
C       -0.91132561       0.90220522       0.91563759
C       -0.01476271      -0.02253852       1.78660255
H       -0.67934791      -0.69751639       2.42135241
H        0.63392994       0.61504881       2.47327442
C        0.01484550      -1.77751727      -0.01636693
H        0.67870853      -2.42144646      -0.68295456
H       -0.62264859      -2.45592969       0.64226336
C        1.78714474       0.01002794       0.00389507
H        2.44202412       0.67113390       0.66197326
H        2.45385902      -0.65136977      -0.64189061
C        0.91606151      -0.90478549       0.90901405
