174
Properties=species:S:1:pos:R:3 pbc="F F F"
C        1.79156595       1.79156595      -1.79156595
C        3.17788220       1.67680448      -1.71950752
C        3.98606804       2.48681708      -2.52492978
C        3.41332741       3.40148567      -3.42138532
C        2.01463344       3.51304675      -3.46741933
C        1.20502725       2.71094829      -2.65734268
C        4.24245223       4.24871645      -4.28539757
N        3.89014647       5.52532546      -4.52114222
N        4.86952202       6.01207476      -5.29331235
H        4.81455717       6.98371554      -5.58091143
C        5.82602180       5.09835601      -5.60056100
C        5.45001261       3.92306882      -4.98277235
C        6.14035293       2.65717732      -5.05180329
N        7.32476974       2.59302495      -5.57731382
N        7.96981628       1.37398302      -5.50516922
C        7.94856409       0.53430295      -4.38648305
O        7.25903916       0.77832132      -3.39637700
C        8.79517175      -0.65050482      -4.47915454
S       10.17919369      -0.65643875      -5.46977563
C       10.62120621      -2.24830015      -4.99857335
C       11.76536312      -2.93987166      -5.45139682
C       12.00877433      -4.23071862      -4.99632722
C       11.12979404      -4.82775141      -4.11049249
C        9.98966006      -4.14282745      -3.65844511
Br       8.89432144      -5.11345573      -2.44377411
C        9.70621219      -2.81191646      -4.09607413
C        8.64616271      -1.85742454      -3.81582688
Cl       7.30912969      -2.19159080      -2.78080949
H        3.64307573       0.96835965      -1.03839615
H        5.06606920       2.39792358      -2.42395895
H        1.54860590       4.23359293      -4.13737491
H        0.12475256       2.81611480      -2.70962864
H        6.67115649       5.34486753      -6.22750089
H        5.60766592       1.77539083      -4.66227814
H        8.74009494       1.26976079      -6.15838015
H       12.45532439      -2.47060011      -6.14888143
H       12.88949619      -4.77044519      -5.33666057
H       11.33556676      -5.83941942      -3.76540765
C       -1.79156595      -1.79156595      -1.79156595
C       -2.69728180      -1.20471215      -2.67220026
C       -3.50756292      -2.01237877      -3.47787320
C       -3.40302537      -3.41035028      -3.42282275
C       -2.49537927      -3.98237047      -2.51734979
C       -1.69076095      -3.17763659      -1.70492067
C       -4.23219073      -4.27440596      -4.26996956
N       -4.73240175      -5.42332441      -3.78088799
N       -5.46372651      -5.92979480      -4.78138781
H       -5.95538575      -6.80291057      -4.62088783
C       -5.43279594      -5.17935692      -5.91278596
C       -4.62290861      -4.09681947      -5.63612570
C       -4.26116876      -3.03891419      -6.54925058
N       -4.86140700      -2.93868154      -7.69501997
N       -4.54557900      -1.83729566      -8.46609386
C       -4.36289505      -0.54569179      -7.96076325
O       -4.37415202      -0.30622863      -6.75335683
C       -4.15318043       0.49311688      -8.96375791
S       -4.77367724       0.32034613     -10.53919947
C       -4.21079479       1.86794220     -11.02862683
C       -4.40372149       2.43402946     -12.30719625
C       -3.89228075       3.69765911     -12.57976129
C       -3.19701812       4.38670458     -11.60222159
C       -3.00232835       3.82603891     -10.32898828
Br      -2.02695715       4.91220674      -9.10988941
C       -3.51775795       2.53269186     -10.00530377
C       -3.49456367       1.70231113      -8.81231252
Cl      -2.70237333       2.15371999      -7.34969503
H       -2.78872626      -0.12325926      -2.73784601
H       -4.22840515      -1.52669467      -4.13285190
H       -2.41486002      -5.06526348      -2.43945024
H       -0.99640481      -3.64329941      -1.01079178
H       -5.96532697      -5.47145124      -6.80674670
H       -3.45618670      -2.35772004      -6.23142816
H       -4.79206754      -1.92944853      -9.44671981
H       -4.94916256       1.89134772     -13.07579088
H       -4.03877398       4.14379514     -13.56073272
H       -2.80268419       5.37459397     -11.83346478
C       -1.79156595       1.79156595       1.79156595
C       -3.14229975       1.94432979       1.48756467
C       -3.94970020       2.75471435       2.29340034
C       -3.41661876       3.40058942       3.41899022
C       -2.04960492       3.24645741       3.69903719
C       -1.23875892       2.44421428       2.89034500
C       -4.24933103       4.24193492       4.28530030
N       -3.75404331       5.38108910       4.80148175
N       -4.77129868       5.91392137       5.48968907
H       -4.62109955       6.80324367       5.95484093
C       -5.89669280       5.15403719       5.47420883
C       -5.59938137       4.03900882       4.71746359
C       -6.47693788       2.92514306       4.44725259
N       -7.73294138       2.99834410       4.76382302
N       -8.53353461       1.94340166       4.37203225
C       -8.43768561       1.29604400       3.13562048
O       -7.54979487       1.55928175       2.32466086
C       -9.45884790       0.28581885       2.87915471
S      -10.98466686       0.38051731       3.62734640
C      -11.57252848      -1.01221002       2.81116096
C      -12.87259474      -1.54447584       2.94876938
C      -13.22427564      -2.68363082       2.23373811
C      -12.30070974      -3.28775815       1.39958353
C      -11.00571355      -2.76133248       1.26089666
Br      -9.86941807      -3.71722394       0.07244568
C      -10.60581080      -1.58790123       1.97246030
C       -9.37852314      -0.81147978       2.03752170
Cl      -7.94250048      -1.22104641       1.17689431
H       -3.57856712       1.44598388       0.62528053
H       -4.99371611       2.88111085       2.01312478
H       -1.60863073       3.75811726       4.55282575
H       -0.18308672       2.34105322       3.12635606
H       -6.79399195       5.45138392       5.99814904
H       -6.02404644       2.03144192       3.98984654
H       -9.41684413       1.88244449       4.86894725
H      -13.59784874      -1.06998286       3.60573984
H      -14.22464195      -3.09925247       2.33032209
H      -12.59301395      -4.17957892       0.84811997
C        1.79156595      -1.79156595       1.79156595
C        2.56209368      -1.21405426       2.79804626
C        3.37252224      -2.02131739       3.60397527
C        3.40203256      -3.41211425       3.42205159
C        2.63031613      -3.97278572       2.39199768
C        1.82634473      -3.16733424       1.57963925
C        4.23289369      -4.27755170       4.26612086
N        4.87606093      -5.33040330       3.73014992
N        5.56404144      -5.86338973       4.74747796
H        6.14569164      -6.67353698       4.55995553
C        5.36907500      -5.22548865       5.93037517
C        4.48921783      -4.19413008       5.67250587
C        3.95611561      -3.25893146       6.63428646
N        4.44599351      -3.21434862       7.83476638
N        3.96640346      -2.21907664       8.66348840
C        3.70887303      -0.90644790       8.25402916
O        3.79965834      -0.55683830       7.07724084
C        3.32080058       0.01433421       9.31735510
S        3.81972072      -0.24977514      10.92303472
C        3.07766823       1.19333472      11.48714590
C        3.10938063       1.65363108      12.82113873
C        2.46274638       2.83927030      13.15090685
C        1.79181883       3.55433060      12.17504690
C        1.75740918       3.09877423      10.84664277
Br       0.79236387       4.20649750       9.63877345
C        2.41503826       1.88868777      10.46401937
C        2.56884126       1.17257722       9.20830102
Cl       1.86443811       1.68831757       7.72222783
H        2.54781665      -0.13938250       2.96263238
H        3.98792230      -1.53899138       4.36103805
H        2.65659715      -5.04683942       2.21613717
H        1.23867812      -3.62396415       0.78785374
H        5.84906203      -5.55270701       6.84175587
H        3.12150966      -2.62158436       6.30224088
H        4.13689236      -2.37996645       9.65137707
H        3.63578196       1.09040020      13.58822396
H        2.48447482       3.20401834      14.17525509
H        1.29022100       4.48004132      12.45137532
C       -0.00445707       0.01189536      -1.78238275
H       -0.66409135       0.67374010      -2.43557963
H        0.65740317      -0.63156657      -2.45157240
C       -0.90989263      -0.90692880      -0.91072765
C        0.90977584       0.90977584      -0.90977584
C       -0.00465871       1.77757030       0.00794375
H       -0.66225468       2.44313916      -0.64384735
H        0.64322798       2.43503045       0.67728295
C       -1.78241447       0.00034974      -0.00472694
H       -2.45427497      -0.65498947       0.64260836
H       -2.43311707       0.67328779      -0.65473579
C       -0.91132561       0.90220522       0.91563759
C       -0.01476271      -0.02253852       1.78660255
H       -0.67934791      -0.69751639       2.42135241
H        0.63392994       0.61504881       2.47327442
C        0.01484550      -1.77751727      -0.01636693
H        0.67870853      -2.42144646      -0.68295456
H       -0.62264859      -2.45592969       0.64226336
C        1.78714474       0.01002794       0.00389507
H        2.44202412       0.67113390       0.66197326
H        2.45385902      -0.65136977      -0.64189061
C        0.91606151      -0.90478549       0.90901405
