182
Properties=species:S:1:pos:R:3 pbc="F F F"
C        1.79156595       1.79156595      -1.79156595
C        3.17788220       1.67680448      -1.71950752
C        3.98606804       2.48681708      -2.52492978
C        3.41332741       3.40148567      -3.42138532
C        2.01463344       3.51304675      -3.46741933
C        1.20502725       2.71094829      -2.65734268
C        4.24245223       4.24871645      -4.28539757
N        3.89014647       5.52532546      -4.52114222
N        4.86952202       6.01207476      -5.29331235
H        4.81455717       6.98371554      -5.58091143
C        5.82602180       5.09835601      -5.60056100
C        5.45001261       3.92306882      -4.98277235
C        6.14035293       2.65717732      -5.05180329
N        7.32476974       2.59302495      -5.57731382
N        7.96981628       1.37398302      -5.50516922
C        7.94856409       0.53430295      -4.38648305
O        7.25903916       0.77832132      -3.39637700
C        8.79517175      -0.65050482      -4.47915454
S       10.17919369      -0.65643875      -5.46977563
C       10.62120621      -2.24830015      -4.99857335
C       11.76536312      -2.93987166      -5.45139682
C       12.00877433      -4.23071862      -4.99632722
C       11.12979404      -4.82775141      -4.11049249
C        9.98966006      -4.14282745      -3.65844511
C        9.70621219      -2.81191646      -4.09607413
C        8.64616271      -1.85742454      -3.81582688
Cl       7.30912969      -2.19159080      -2.78080949
H        3.64307573       0.96835965      -1.03839615
H        5.06606920       2.39792358      -2.42395895
H        1.54860590       4.23359293      -4.13737491
H        0.12475256       2.81611480      -2.70962864
H        6.67115649       5.34486753      -6.22750089
H        5.60766592       1.77539083      -4.66227814
H        8.74009494       1.26976079      -6.15838015
H       12.45532439      -2.47060011      -6.14888143
H       12.88949619      -4.77044519      -5.33666057
H       11.33556676      -5.83941942      -3.76540765
C        9.16034809      -4.87771768      -2.73878321
C        8.46579932      -5.49318825      -1.96856637
Br       7.34277269      -6.48835210      -0.72319089
C       -1.79156595      -1.79156595      -1.79156595
C       -2.45460575      -1.23616787      -2.88342059
C       -3.26510587      -2.04313667      -3.68957236
C       -3.40144001      -3.41344140      -3.42131700
C       -2.73757410      -3.95053459      -2.30699084
C       -1.93403893      -3.14451499      -1.49476429
C       -4.23382347      -4.27963128      -4.26311150
N       -4.98064862      -5.24988562      -3.70607992
N       -5.63689691      -5.80612141      -4.73189080
H       -6.28351018      -6.56255994      -4.53311402
C       -5.32325522      -5.26458017      -5.93710343
C       -4.39314561      -4.27650612      -5.68620205
C       -3.73666476      -3.44550487      -6.66716390
N       -4.14437081      -3.45196751      -7.89877019
N       -3.54557971      -2.54861091      -8.75477789
C       -3.22549742      -1.23022733      -8.41362534
O       -3.36736566      -0.79571146      -7.27066036
C       -2.70788478      -0.41123942      -9.50469726
S       -3.11976846      -0.75221545     -11.12054666
C       -2.24595145       0.59830842     -11.72383639
C       -2.16047145       0.96720711     -13.08362394
C       -1.41431501       2.08356920     -13.44363712
C       -0.75991117       2.81932757     -12.47195152
C       -0.84202280       2.45459214     -11.11784705
C       -1.60418884       1.31821691     -10.70439793
C       -1.88687545       0.70116188      -9.41885149
Cl      -1.24550723       1.27129149      -7.92413264
H       -2.35620875      -0.17842919      -3.11519359
H       -3.79621287      -1.57535960      -4.51637926
H       -2.84860253      -5.00611594      -2.06485527
H       -1.43100831      -3.58255242      -0.63693527
H       -5.76512091      -5.62202988      -6.85637412
H       -2.88335788      -2.84172098      -6.32025604
H       -3.66301199      -2.76554807      -9.73967582
H       -2.67396729       0.38764800     -13.84728642
H       -1.34529128       2.37791670     -14.48833700
H       -0.17938631       3.68986682     -12.77203551
C       -0.11574364       3.30540091     -10.21107089
C        0.49251515       4.01795325      -9.45164585
Br       1.47601818       5.17009013      -8.22371979
C       -1.79156595       1.79156595       1.79156595
C       -3.17668063       1.74600925       1.65150432
C       -3.98465286       2.55614295       2.45701908
C       -3.41424502       3.40114656       3.42080682
C       -2.01569070       3.44410055       3.53530827
C       -1.20572254       2.64200724       2.72558842
C       -4.24420403       4.24676007       4.28560216
N       -3.84607121       5.49326466       4.59727829
N       -4.83791449       5.99044678       5.34654785
H       -4.75273842       6.94438355       5.68206218
C       -5.84825802       5.11011976       5.56656104
C       -5.49695156       3.94748847       4.91141375
C       -6.24635119       2.71390936       4.88907298
N       -7.45602966       2.68224983       5.35682903
N       -8.15142290       1.49966018       5.19788544
C       -8.11518997       0.71138850       4.04277162
O       -7.36918520       0.96699985       3.09755243
C       -9.01797314      -0.43494506       4.04079338
S      -10.44623574      -0.42009430       4.96638914
C      -10.93698672      -1.96627015       4.40076285
C      -12.13143267      -2.62262017       4.76807578
C      -12.41115516      -3.87857003       4.24179780
C      -11.51909424      -4.47589853       3.36933941
C      -10.32900009      -3.82602624       3.00230387
C      -10.00668788      -2.53120674       3.51488873
C       -8.89245210      -1.61632300       3.32843596
Cl      -7.52436024      -1.96630780       2.34029593
H       -3.64064778       1.09194704       0.91723671
H       -5.06157013       2.52319028       2.30319132
H       -1.54981517       4.11070329       4.25905528
H       -0.12548891       2.69338759       2.83161950
H       -6.71013514       5.36778903       6.16560074
H       -5.73624258       1.82639607       4.48269625
H       -8.95571766       1.40261330       5.80990493
H      -12.83173488      -2.15321481       5.45508564
H      -13.33053141      -4.39079642       4.51597658
H      -11.75384078      -5.46002890       2.96774312
C       -9.49113459      -4.55703175       2.08731079
C       -8.78942223      -5.16924887       1.32100408
Br      -7.65481269      -6.15915218       0.08195096
C        1.79156595      -1.79156595       1.79156595
C        2.74962730      -1.20758196       2.61698494
C        3.55983117      -2.01541652       3.42256720
C        3.40349674      -3.40963397       3.42306769
C        2.44311772      -3.97961908       2.57236273
C        1.63821441      -3.17516414       1.75993966
C        4.23208236      -4.27300168       4.27148221
N        4.67251989      -5.45637250       3.80772177
N        5.42183402      -5.95353277       4.79954234
H        5.87573790      -6.84942124       4.65402501
C        5.45960904      -5.16256004       5.90276974
C        4.67919111      -4.06135095       5.61531172
C        4.38948932      -2.95886323       6.50098098
N        5.03492250      -2.84008575       7.62010026
N        4.78736564      -1.70094461       8.36065827
C        4.63231910      -0.42232392       7.81470706
O        4.60741530      -0.22668990       6.59963228
C        4.49708640       0.65867283       8.78540790
S        5.16891172       0.51939437      10.34301322
C        4.68012838       2.10324754      10.79459859
C        4.94033218       2.70708025      12.04363634
C        4.48475965       3.99769812      12.28732140
C        3.77882643       4.67667657      11.31038526
C        3.51725292       4.07851400      10.06653880
C        3.97385612       2.75624581       9.77275955
C        3.87689456       1.88524104       8.61291154
Cl       3.04772447       2.31317134       7.16379524
H        2.88198073      -0.12860157       2.63924922
H        4.32129966      -1.53367944       4.03297264
H        2.32117006      -5.06087945       2.53752422
H        0.90246241      -3.63928421       1.10874938
H        6.01410049      -5.44207203       6.78735239
H        3.59812147      -2.26011725       6.18709617
H        5.06653744      -1.76709828       9.33460016
H        5.49413193       2.17235983      12.81183361
H        4.68329424       4.47283495      13.24525228
H        3.42883430       5.68610929      11.51882999
C        2.77493524       4.89418503       9.14066342
C        2.15324418       5.57730952       8.36524278
Br       1.14802231       6.68186404       7.11145320
C       -0.00445707       0.01189536      -1.78238275
H       -0.66409135       0.67374010      -2.43557963
H        0.65740317      -0.63156657      -2.45157240
C       -0.90989263      -0.90692880      -0.91072765
C        0.90977584       0.90977584      -0.90977584
C       -0.00465871       1.77757030       0.00794375
H       -0.66225468       2.44313916      -0.64384735
H        0.64322798       2.43503045       0.67728295
C       -1.78241447       0.00034974      -0.00472694
H       -2.45427497      -0.65498947       0.64260836
H       -2.43311707       0.67328779      -0.65473579
C       -0.91132561       0.90220522       0.91563759
C       -0.01476271      -0.02253852       1.78660255
H       -0.67934791      -0.69751639       2.42135241
H        0.63392994       0.61504881       2.47327442
C        0.01484550      -1.77751727      -0.01636693
H        0.67870853      -2.42144646      -0.68295456
H       -0.62264859      -2.45592969       0.64226336
C        1.78714474       0.01002794       0.00389507
H        2.44202412       0.67113390       0.66197326
H        2.45385902      -0.65136977      -0.64189061
C        0.91606151      -0.90478549       0.90901405
