157
Properties=species:S:1:pos:R:3 pbc="F F F"
C        0.00000000       0.00000000       0.00000000
C        3.54832801       1.70071910      -4.25706838
C        2.33918675       2.47431943      -3.75734426
N        1.84185705       1.96131695      -2.49341587
N        2.56859935       2.28365359      -1.37926229
C        1.96035258       1.60943216      -0.40328026
C        0.87180454       0.87180454      -0.87180454
C        0.78256998       1.11040285      -2.22612469
C       -0.10463462       0.58393466      -3.20352261
H       -0.46632378      -0.42863011      -3.03093345
N       -0.54475795       1.35595218      -4.20617347
N       -1.37819652       0.58612075      -5.07854250
C       -0.86873463      -0.04387574      -6.19449940
O       -1.62595314      -0.34198755      -7.12550860
C        0.59327462      -0.40177829      -6.22734163
N        1.46584352       0.40663425      -7.07634776
N        2.71095096      -0.11010133      -7.28579012
C        3.40237306       0.86563953      -7.89670569
C        4.86056700       0.67836030      -8.16115824
F        5.08784547      -0.17754304      -9.19854102
F        5.50851273       1.83267382      -8.48780193
C        2.56990508       1.97407519      -8.13703163
C        1.33159630       1.67064630      -7.61118445
C        0.10180132       2.50307164      -7.54110665
H        3.92227958       2.14342098      -5.18489295
H        3.29595372       0.65299924      -4.44696768
H        4.36479375       1.71747840      -3.52764305
H        1.55509166       2.47973015      -4.50999509
H        2.61252319       3.52283466      -3.58805771
H        2.34669373       1.68352344       0.60276100
H       -2.31668267       0.95130820      -5.19824520
H        0.65564783      -1.42951466      -6.60870515
H        1.05637601      -0.41992556      -5.24017655
H        5.35799025       0.27246354      -7.27405436
H       -0.03562571       2.90883413      -6.53564981
H       -0.78889751       1.94841396      -7.84010119
H        0.16320939       3.35580543      -8.22495735
C        2.96253841       3.21078687      -8.76151805
C        3.29136883       4.24653290      -9.28452542
Br       3.82305980       5.92124664     -10.13018411
C       -1.66612044      -4.14021313      -3.69978192
C       -2.39123213      -3.76057545      -2.41904286
N       -1.92293582      -2.49844958      -1.87520447
N       -2.35395528      -1.36593629      -2.51162365
C       -1.70139066      -0.38720283      -1.88447151
C       -0.87180454      -0.87180454      -0.87180454
C       -1.02513952      -2.24118441      -0.85277359
C       -0.38876566      -3.23415494      -0.05990205
H        0.63245942      -3.02061906       0.25218009
N       -1.07236764      -4.30657134       0.36157128
N       -0.20295375      -5.17670687       1.09319389
C        0.45824692      -6.21998418       0.47984823
O        0.85634740      -7.17328891       1.15937361
C        0.72632876      -6.14541518      -0.99975154
N       -0.08368815      -6.99053783      -1.87459956
N        0.36635569      -7.09473816      -3.15825728
C       -0.61304606      -7.72353270      -3.82813951
C       -0.50124472      -7.89051344      -5.30832738
F        0.39792525      -8.85796162      -5.64880707
F       -1.67244102      -8.24964269      -5.90690478
C       -1.65197998      -8.08004304      -2.94898889
C       -1.30367420      -7.60945093      -1.70030192
C       -2.06109638      -7.66274782      -0.42213542
H       -2.07631415      -5.07028776      -4.10399161
H       -0.59551694      -4.27931337      -3.52109034
H       -1.77580981      -3.36690819      -4.46719719
H       -2.30428231      -4.55650796      -1.68402664
H       -3.46272429      -3.64084172      -2.61984956
H       -1.85770846       0.63311923      -2.20286694
H       -0.50179434      -5.37322794       2.04215155
H        1.76870245      -6.45819143      -1.14534934
H        0.65826703      -5.13372440      -1.40116963
H       -0.17925428      -6.95253695      -5.77271691
H       -2.51545191      -6.69403129      -0.19937503
H       -1.43593150      -7.97822780       0.41454166
H       -2.87471540      -8.39329889      -0.47595788
C       -2.87213550      -8.75590546      -3.30680237
C       -3.89401574      -9.32194024      -3.60647117
Br      -5.54630968     -10.23717061      -4.09101027
C       -2.91814051       1.99217009       4.59580490
C       -2.08357058       2.83865794       3.64862192
N       -1.73946893       2.12543227       2.43168867
N       -2.73794781       1.98790186       1.50566555
C       -2.18786798       1.22097222       0.56422480
C       -0.87180454       0.87180454       0.87180454
C       -0.57229634       1.47039977       2.07640141
C        0.60296717       1.41251192       2.87327789
H        1.17422610       0.48672756       2.82347810
N        1.02120452       2.49382114       3.54475108
N        2.18806256       2.16787825       4.30665105
C        2.10201865       1.76206797       5.62183972
O        3.08528862       1.88064667       6.36220984
C        0.82413772       1.13315175       6.10982393
N       -0.03643579       1.93904636       6.97334339
N       -1.03188540       1.25121673       7.60353762
C       -1.81442240       2.18959991       8.16069596
C       -3.08593253       1.78310953       8.83104348
F       -2.86276766       1.20159577      10.04448002
F       -3.93266990       2.82421172       9.07210688
C       -1.27096858       3.46864475       7.94139857
C       -0.13169831       3.29874267       7.18298607
C        0.79509540       4.31765355       6.62342146
H       -3.19644967       2.57625517       5.47788867
H       -2.36633218       1.10590136       4.92368710
H       -3.84208713       1.64903181       4.11879625
H       -1.19119544       3.20214952       4.15147194
H       -2.65112198       3.72678205       3.34551153
H       -2.77806818       0.94760180      -0.29821381
H        3.00171513       2.73623372       4.09835215
H        1.11322713       0.25135614       6.69670930
H        0.18963399       0.76200789       5.30425310
H       -3.63053451       1.06556634       8.20840729
H        0.61185794       4.46466713       5.55604903
H        1.84181088       4.05592316       6.78550535
H        0.65383460       5.28849555       7.10931122
C       -1.83746056       4.71798036       8.37940240
C       -2.31189760       5.76429894       8.74623062
Br      -3.07902216       7.45610758       9.33936081
C        3.91708877      -3.94419029       1.64483644
C        3.74347084      -2.56586788       2.26151172
N        2.49701937      -1.93753801       1.86203248
N        1.36105280      -2.40381508       2.46664735
C        0.38328873      -1.74135304       1.84842323
C        0.87180454      -0.87180454       0.87180454
C        2.24509282      -0.98523516       0.88876954
C        3.23608483      -0.36906173       0.07767609
H        2.94532402      -0.13629283      -0.94563730
N        4.41150688      -0.00098984       0.60487099
N        5.24998355       0.54519136      -0.41832546
C        6.15180377      -0.23786589      -1.10778063
O        7.11816187       0.29350766      -1.66708631
C        5.90582395      -1.71986547      -1.20685147
N        6.74429416      -2.59780293      -0.39327156
N        6.67464263      -3.92276335      -0.71076622
C        7.33712327      -4.55823453       0.26936047
C        7.34688466      -6.05162159       0.30157929
F        8.17455156      -6.57959987      -0.64530798
F        7.77005385      -6.56897879       1.48995586
C        7.88670354      -3.62595027       1.16835808
C        7.50465762      -2.37359983       0.73516960
C        7.76264058      -1.04120461       1.34213442
H        4.84227271      -4.40431721       2.00400359
H        3.95702090      -3.88607980       0.55281994
H        3.08933269      -4.60981847       1.91076404
H        4.59291952      -1.93252507       2.01937231
H        3.72065363      -2.64785532       3.35490660
H       -0.64035931      -1.93162870       2.13618677
H        5.56851022       1.49201152      -0.24362797
H        6.08920933      -1.99855523      -2.25292625
H        4.87318839      -2.00177071      -0.99833210
H        6.33917900      -6.44155670       0.12377244
H        6.87452069      -0.67267929       1.86165824
H        8.08872078      -0.30781297       0.60308388
H        8.56770056      -1.09409773       2.08217387
C        8.65186634      -3.93436101       2.34861599
C        9.29269018      -4.19265500       3.33708198
Br      10.32884813      -4.61029453       4.93534789
