170
Properties=species:S:1:pos:R:3 pbc="F F F"
C        4.45823203       2.61062312      -5.16697241
C        3.24909078       3.38422346      -4.66724828
N        2.75176107       2.87122097      -3.40331990
N        3.47850337       3.19355762      -2.28916631
C        2.87025660       2.51933619      -1.31318428
C        1.78170856       1.78170856      -1.78170856
C        1.69247400       2.02030688      -3.13602871
C        0.80526941       1.49383868      -4.11342663
H        0.44358024       0.48127391      -3.94083748
N        0.36514607       2.26585620      -5.11607750
N       -0.46829249       1.49602477      -5.98844653
C        0.04116939       0.86602828      -7.10440343
O       -0.71604912       0.56791647      -8.03541262
C        1.50317864       0.50812574      -7.13724565
N        2.37574755       1.31653828      -7.98625179
N        3.62085499       0.79980269      -8.19569414
C        4.31227708       1.77554355      -8.80660972
C        5.77047103       1.58826432      -9.07106227
F        5.99774949       0.73236098     -10.10844505
F        6.41841676       2.74257785      -9.39770596
C        3.47980910       2.88397921      -9.04693566
Br       3.99169128       4.49629945      -9.86108830
C        2.24150032       2.58055033      -8.52108848
C        1.01170535       3.41297566      -8.45101068
H        4.83218360       3.05332501      -6.09479697
H        4.20585774       1.56290327      -5.35687171
H        5.27469777       2.62738242      -4.43754707
H        2.46499569       3.38963418      -5.41989912
H        3.52242721       4.43273869      -4.49796173
H        3.25659775       2.59342746      -0.30714303
H       -1.40677864       1.86121222      -6.10814923
H        1.56555185      -0.51961064      -7.51860917
H        1.96628003       0.48997847      -6.15008057
H        6.26789427       1.18236756      -8.18395838
H        0.87427832       3.81873815      -7.44555383
H        0.12100651       2.85831798      -8.75000521
H        1.07311341       4.26570945      -9.13486138
C       -2.75030145      -5.38968999      -4.09583613
C       -3.59021505      -4.62276499      -3.08758247
N       -2.96476141      -3.37554423      -2.68599631
N       -3.02409442      -2.34842215      -3.58871073
C       -2.29705165      -1.38793136      -3.01779407
C       -1.78170856      -1.78170856      -1.78170856
C       -2.22633799      -3.06641177      -1.55605982
C       -1.96719778      -3.96190884      -0.48342810
H       -0.99492948      -3.86894043      -0.00182173
N       -2.92817095      -4.78185391      -0.03705492
N       -2.40801067      -5.61337082       1.00520268
C       -1.88907216      -6.86343319       0.74090425
O       -1.83046032      -7.70334267       1.64652302
C       -1.35587212      -7.15645472      -0.63622319
N       -2.16204953      -8.01411844      -1.50236964
N       -1.52677920      -8.46876583      -2.62080679
C       -2.48522599      -9.04486085      -3.36434351
C       -2.15393014      -9.54266646      -4.73320101
F       -1.43795238     -10.70305175      -4.69755139
F       -3.25127446      -9.81070767      -5.49671844
C       -3.71422302      -9.01636761      -2.68013334
Br      -5.34989541      -9.68397576      -3.31520788
C       -3.49765276      -8.35728368      -1.48820269
C       -4.46109737      -8.00120303      -0.41339129
H       -3.27314867      -6.29809826      -4.40905865
H       -1.78288584      -5.67283211      -3.66991477
H       -2.55502828      -4.79219744      -4.99240154
H       -3.80650880      -5.24496311      -2.22305707
H       -4.55876143      -4.36282167      -3.53154453
H       -2.17233938      -0.44853250      -3.53629636
H       -2.90383319      -5.54603679       1.88728717
H       -0.39596088      -7.67112618      -0.49746332
H       -1.13364902      -6.25865733      -1.21403272
H       -1.56172168      -8.79765274      -5.27484579
H       -4.72877140      -6.94292020      -0.46687870
H       -4.07497531      -8.23439974       0.58004535
H       -5.39020306      -8.57190422      -0.51157697
C       -4.21449632       5.32518704       2.69614420
C       -4.50255755       3.85359326       2.94441170
N       -3.35372317       3.01257202       2.66000675
N       -2.34930779       3.02215394       3.58976556
C       -1.40197558       2.26628032       3.03452117
C       -1.78170856       1.78170856       1.78170856
C       -3.05484485       2.25168147       1.54228326
C       -3.89888343       2.10528838       0.40836291
H       -3.40041322       2.02148705      -0.55620864
N       -5.22227165       1.96320207       0.56160605
N       -5.85159273       1.88605912      -0.72147304
C       -6.35313139       3.00715917      -1.34868945
O       -7.22359565       2.88160086      -2.21791654
C       -5.78691834       4.35656860      -0.99493691
N       -6.61053070       5.23735359      -0.16934668
N       -6.18456797       6.53152724      -0.09974338
C       -6.93750221       7.10251381       0.85441432
C       -6.64462516       8.50362808       1.28154437
F       -7.06069924       9.41845915       0.35939713
F       -7.25256725       8.85623908       2.44989423
C       -7.88867249       6.18503785       1.33701363
Br      -9.15463389       6.50969979       2.68474536
C       -7.67401577       4.99471383       0.67440952
C       -8.35604634       3.68362472       0.83602062
H       -5.08525718       5.93052091       2.96452749
H       -3.97251052       5.50834292       1.64477927
H       -3.36816798       5.67512079       3.29633850
H       -5.36893457       3.53488350       2.37071090
H       -4.75604877       3.69718872       3.99989015
H       -0.47604037       2.11206878       3.56905909
H       -6.39493446       1.04387219      -0.87622384
H       -5.62212137       4.88539367      -1.94296466
H       -4.81230070       4.30266105      -0.50862267
H       -5.56781463       8.63839668       1.42800890
H       -7.73578050       2.99159001       1.41119980
H       -8.61805845       3.23436724      -0.12309598
H       -9.30021310       3.79445581       1.37901533
C        5.57219330      -3.59396293       3.06967133
C        4.47980870      -2.92936833       3.89138549
N        3.30225649      -2.62597284       3.09807261
N        2.49106870      -3.68350930       2.78664929
C        1.57174903      -3.14678907       1.98423897
C        1.78170856      -1.78170856       1.78170856
C        2.89566425      -1.43702021       2.51612513
C        3.57892737      -0.19678215       2.63682521
H        3.55559207       0.45359188       1.76369144
N        4.11093477       0.17329951       3.80944452
N        4.78361780       1.42770419       3.66026520
C        6.13129784       1.49538369       3.37568695
O        6.76148032       2.52350447       3.64930412
C        6.79164752       0.33052895       2.68743146
N        7.65989586      -0.52457819       3.49406355
N        8.43947679      -1.39138418       2.78549086
C        8.98496942      -2.20836475       3.70109618
C        9.80621541      -3.37224280       3.25133940
F       11.03880405      -2.99004083       2.80971064
F       10.03544134      -4.29015500       4.23310423
C        8.60452565      -1.81039348       4.99580484
Br       9.09956514      -2.64832947       6.60118444
C        7.75865981      -0.73038299       4.85409632
C        7.02687814       0.04293258       5.89174613
H        6.42265079      -3.84892000       3.70873479
H        5.92180310      -2.93380872       2.27002089
H        5.21704147      -4.51896275       2.60362305
H        4.86182503      -2.03536918       4.37733478
H        4.15610261      -3.60315737       4.69386766
H        0.79651958      -3.78098578       1.57966288
H        4.45011745       2.16229368       4.27475903
H        7.42274206       0.75224905       1.89405737
H        6.08553231      -0.33334075       2.18746602
H        9.30305421      -3.89805053       2.43311547
H        5.97310200      -0.24557463       5.91989368
H        7.11062164       1.11993476       5.73864282
H        7.43776955      -0.14741746       6.88849723
C       -0.00445707       0.01189536      -1.78238275
H       -0.66409135       0.67374010      -2.43557963
H        0.65740317      -0.63156657      -2.45157240
C       -0.90989263      -0.90692880      -0.91072765
C        0.90977584       0.90977584      -0.90977584
C       -0.00465871       1.77757030       0.00794375
H       -0.66225468       2.44313916      -0.64384735
H        0.64322798       2.43503045       0.67728295
C       -1.78241447       0.00034974      -0.00472694
H       -2.45427497      -0.65498947       0.64260836
H       -2.43311707       0.67328779      -0.65473579
C       -0.91132561       0.90220522       0.91563759
C       -0.01476271      -0.02253852       1.78660255
H       -0.67934791      -0.69751639       2.42135241
H        0.63392994       0.61504881       2.47327442
C        0.01484550      -1.77751727      -0.01636693
H        0.67870853      -2.42144646      -0.68295456
H       -0.62264859      -2.45592969       0.64226336
C        1.78714474       0.01002794       0.00389507
H        2.44202412       0.67113390       0.66197326
H        2.45385902      -0.65136977      -0.64189061
C        0.91606151      -0.90478549       0.90901405
