178
Properties=species:S:1:pos:R:3 pbc="F F F"
C        4.45823203       2.61062312      -5.16697241
C        3.24909078       3.38422346      -4.66724828
N        2.75176107       2.87122097      -3.40331990
N        3.47850337       3.19355762      -2.28916631
C        2.87025660       2.51933619      -1.31318428
C        1.78170856       1.78170856      -1.78170856
C        1.69247400       2.02030688      -3.13602871
C        0.80526941       1.49383868      -4.11342663
H        0.44358024       0.48127391      -3.94083748
N        0.36514607       2.26585620      -5.11607750
N       -0.46829249       1.49602477      -5.98844653
C        0.04116939       0.86602828      -7.10440343
O       -0.71604912       0.56791647      -8.03541262
C        1.50317864       0.50812574      -7.13724565
N        2.37574755       1.31653828      -7.98625179
N        3.62085499       0.79980269      -8.19569414
C        4.31227708       1.77554355      -8.80660972
C        5.77047103       1.58826432      -9.07106227
F        5.99774949       0.73236098     -10.10844505
F        6.41841676       2.74257785      -9.39770596
C        3.47980910       2.88397921      -9.04693566
C        2.24150032       2.58055033      -8.52108848
C        1.01170535       3.41297566      -8.45101068
H        4.83218360       3.05332501      -6.09479697
H        4.20585774       1.56290327      -5.35687171
H        5.27469777       2.62738242      -4.43754707
H        2.46499569       3.38963418      -5.41989912
H        3.52242721       4.43273869      -4.49796173
H        3.25659775       2.59342746      -0.30714303
H       -1.40677864       1.86121222      -6.10814923
H        1.56555185      -0.51961064      -7.51860917
H        1.96628003       0.48997847      -6.15008057
H        6.26789427       1.18236756      -8.18395838
H        0.87427832       3.81873815      -7.44555383
H        0.12100651       2.85831798      -8.75000521
H        1.07311341       4.26570945      -9.13486138
C        3.87244244       4.12069089      -9.67142207
C        4.20127285       5.15643693     -10.19442945
Br       4.73296383       6.83115066     -11.04008813
C       -4.08781675      -5.39375991      -2.75425090
C       -4.45636405      -3.92809277      -2.91610569
N       -3.33560351      -3.04586119      -2.64483725
N       -2.37876486      -2.96248344      -3.61997900
C       -1.44173756      -2.18779796      -3.07324156
C       -1.78170856      -1.78170856      -1.78170856
C       -3.01811672      -2.32440127      -1.50629160
C       -3.81132205      -2.27296482      -0.32824786
H       -3.27051048      -2.21004372       0.61486257
N       -5.14584554      -2.18908457      -0.41214966
N       -5.71425193      -2.20317120       0.90124432
C       -6.13127370      -3.37572474       1.49539734
O       -6.96287987      -3.33397281       2.40957271
C       -5.52053650      -4.67761018       1.04959664
N       -6.34156747      -5.55817052       0.22120038
N       -5.85937591      -6.82515518       0.06817927
C       -6.63072680      -7.38713418      -0.87656936
C       -6.29387938      -8.75060445      -1.38531379
F       -6.62079907      -9.72698168      -0.49077477
F       -6.94133371      -9.07754899      -2.53981786
C       -7.64641087      -6.49592529      -1.26838781
C       -7.45544448      -5.32884062      -0.55885403
C       -8.20527174      -4.04673510      -0.62368485
H       -4.94140038      -6.02792878      -3.01097642
H       -3.78612340      -5.61385490      -1.72565441
H       -3.25655283      -5.67316040      -3.40991404
H       -5.30746990      -3.67958852      -2.28747055
H       -4.76848514      -3.73506025      -3.94958225
H       -0.55144281      -1.96337962      -3.64234582
H       -6.28818945      -1.39688944       1.12249608
H       -5.28473875      -5.24152947       1.96171783
H       -4.57460164      -4.55313039       0.52139296
H       -5.22044079      -8.82526389      -1.58851553
H       -7.64713640      -3.29885777      -1.19257613
H       -8.44057719      -3.65633123       0.36757871
H       -9.16875985      -4.17828546      -1.12663893
C       -8.65436269      -6.74368173      -2.26651099
C       -9.49852233      -6.95117774      -3.10243916
Br     -10.86345707      -7.28668124      -4.45406431
C       -3.89625371       2.85949100       5.48008285
C       -3.01540471       3.70773393       4.57742388
N       -2.65773344       3.01724268       3.35132582
N       -3.63459031       2.93005885       2.39657814
C       -3.07974861       2.17335787       1.44967059
C       -1.78170856       1.78170856       1.78170856
C       -1.49883516       2.34094817       3.00902626
C       -0.34693319       2.23149938       3.83410216
H        0.20140628       1.29252460       3.77457331
N        0.08111829       3.28371727       4.54448079
N        1.21864060       2.90751930       5.32730011
C        1.08742859       2.47038326       6.62864644
O        2.05350742       2.54381258       7.39697480
C       -0.21868373       1.86311314       7.06675315
N       -1.08074358       2.66896914       7.92882489
N       -2.10989463       1.99169514       8.51476205
C       -2.88245824       2.93577753       9.07619458
C       -4.18129643       2.54591581       9.70258537
F       -4.00534592       1.92764152      10.90556808
F       -5.00701318       3.60248681       9.94920057
C       -2.30063023       4.20523051       8.90486323
C       -1.14646036       4.02485745       8.17182132
C       -0.17925771       5.03298300       7.66345097
H       -4.18265037       3.42781534       6.36983987
H       -3.37631967       1.95079068       5.79852237
H       -4.81579725       2.55330283       4.97052718
H       -2.12757011       4.03443065       5.11252822
H       -3.55167828       4.61806653       4.28338282
H       -3.65378526       1.93799384       0.56538914
H        2.05188609       3.45933987       5.15512902
H        0.03197761       0.95915766       7.63737034
H       -0.84101582       1.52974887       6.23557439
H       -4.72754757       1.85929915       9.04737349
H       -0.33036205       5.21223515       6.59597310
H        0.85571712       4.73958073       7.84546609
H       -0.30826172       5.99438248       8.17104004
C       -2.84613593       5.45741041       9.36100906
C       -3.30299695       6.50611109       9.74303119
Br      -4.04170258       8.20177138      10.36072867
C        3.85544505      -5.49574243       2.88464008
C        4.35925852      -4.06174437       2.87955962
N        3.29649690      -3.10621193       2.62359310
N        2.44372819      -2.85354986       3.66394924
C        1.52891136      -2.04477624       3.12908948
C        1.78170856      -1.78170856       1.78170856
C        2.93753790      -2.45695020       1.45432149
C        3.62064119      -2.57787614       0.21401739
H        3.00267157      -2.54506660      -0.68204654
N        4.95953464      -2.61022173       0.17732340
N        5.40164207      -2.78688681      -1.17235007
C        5.66220658      -4.03859647      -1.68920194
O        6.40684388      -4.15046857      -2.67003249
C        4.98770090      -5.23672939      -1.07588026
N        5.80440220      -6.11620665      -0.24207123
N        5.23347278      -7.31614564       0.06673340
C        6.03836547      -7.86517247       0.99089241
C        5.63622087      -9.14428453       1.64929221
F        5.79628135     -10.21832912       0.82394506
F        6.35722292      -9.43108209       2.77039555
C        7.15709419      -7.04128335       1.21234644
C        7.00056928      -5.92541329       0.41715655
C        7.85833987      -4.71674259       0.30060923
H        4.67263664      -6.18181653       3.12585241
H        3.44307406      -5.77290659       1.90965207
H        3.06740630      -5.64144047       3.63078049
H        5.16686984      -3.94625212       2.16140702
H        4.78014847      -3.81197968       3.86099947
H        0.71671930      -1.69243488       3.74801406
H        6.01858766      -2.05823122      -1.51423608
H        4.62249921      -5.85129935      -1.90924818
H        4.10813885      -4.98187523      -0.48367501
H        4.58353611      -9.10263527       1.94804883
H        7.41972394      -3.87555917       0.84328719
H        8.03355917      -4.43436768      -0.73859715
H        8.84947642      -4.89350395       0.73070388
C        8.22807595      -7.29578728       2.14069218
C        9.12502317      -7.50893432       2.91818174
Br      10.57531097      -7.85357505       4.17531660
C       -0.00445707       0.01189536      -1.78238275
H       -0.66409135       0.67374010      -2.43557963
H        0.65740317      -0.63156657      -2.45157240
C       -0.90989263      -0.90692880      -0.91072765
C        0.90977584       0.90977584      -0.90977584
C       -0.00465871       1.77757030       0.00794375
H       -0.66225468       2.44313916      -0.64384735
H        0.64322798       2.43503045       0.67728295
C       -1.78241447       0.00034974      -0.00472694
H       -2.45427497      -0.65498947       0.64260836
H       -2.43311707       0.67328779      -0.65473579
C       -0.91132561       0.90220522       0.91563759
C       -0.01476271      -0.02253852       1.78660255
H       -0.67934791      -0.69751639       2.42135241
H        0.63392994       0.61504881       2.47327442
C        0.01484550      -1.77751727      -0.01636693
H        0.67870853      -2.42144646      -0.68295456
H       -0.62264859      -2.45592969       0.64226336
C        1.78714474       0.01002794       0.00389507
H        2.44202412       0.67113390       0.66197326
H        2.45385902      -0.65136977      -0.64189061
C        0.91606151      -0.90478549       0.90901405
