129
Properties=species:S:1:pos:R:3 pbc="F F F"
C        0.00000000       0.00000000       0.00000000
C        0.88413867       0.88413867      -0.88413867
C        1.55581101       0.31414271      -1.96805283
C        2.36723482       1.11400039      -2.77078750
C        2.49491692       2.46926133      -2.47748316
O        3.31998505       3.22243296      -3.27684582
C        1.82219496       3.06041384      -1.39263629
C        1.96953119       4.48725604      -1.04023392
H        1.60471310       4.79704440      -0.06469682
N        2.66841638       5.29149879      -1.86315124
N        2.95515420       6.53457804      -1.18633850
C        3.70073728       7.40188741      -1.89544478
C        4.59183109       8.44758379      -1.26242139
O        4.83279704       8.72407855      -0.09872860
N        5.14934042       9.12372801      -2.34974399
C        4.65700504       8.64229170      -3.55821838
C        4.96677271       9.12204804      -4.81626347
C        4.31804210       8.53415929      -5.90470568
C        3.38495339       7.49886827      -5.70074210
C        3.09263509       7.02521629      -4.42148616
C        3.75047454       7.59894968      -3.34758866
C        1.01262111       2.24408674      -0.59380633
H        1.45961655      -0.74230189      -2.19073450
H        2.90790272       0.70151103      -3.61392184
H        3.24552659       4.13936449      -2.83932813
H        5.79045920       9.87770412      -2.21564691
H        5.67616798       9.92715094      -4.95150487
H        4.53181943       8.88632399      -6.90825284
H        2.37362333       6.23348129      -4.23349125
H        0.49668465       2.68802021       0.25150600
C        2.71555738       6.93337841      -6.84342762
C        2.15493822       6.45978065      -7.80042675
Br       1.24846446       5.69401313      -9.34781339
C       -0.88413867      -0.88413867      -0.88413867
C       -0.84207328      -2.27113221      -0.72480106
C       -1.63980815      -3.07967970      -1.53253486
C       -2.46558663      -2.48993788      -2.48613689
O       -3.22146925      -3.31867927      -3.27911532
C       -2.52357554      -1.09480422      -2.65686534
C       -3.36429171      -0.44796714      -3.68476230
H       -3.16992924       0.59995170      -3.89647679
N       -4.21309159      -1.20722516      -4.40274967
N       -4.68652818      -0.45113323      -5.53840934
C       -5.50429452      -1.12958783      -6.36418712
C       -5.65665754      -0.81025678      -7.83492194
O       -5.13535869       0.02975024      -8.54999574
N       -6.60221017      -1.73280188      -8.28780037
C       -7.07390440      -2.53191374      -7.25169698
C       -8.04596174      -3.50872619      -7.35039629
C       -8.41971982      -4.16298198      -6.17420528
C       -7.81853103      -3.81808144      -4.94795129
C       -6.83356091      -2.83295103      -4.87282561
C       -6.45425322      -2.19946447      -6.04329519
C       -1.71489714      -0.29559401      -1.84002302
H       -0.19394395      -2.72818579       0.01408058
H       -1.62472053      -4.15880834      -1.43980671
H       -3.69782740      -2.64726452      -3.87912729
H       -6.89364197      -1.74719480      -9.24297346
H       -8.50559470      -3.75002589      -8.29920320
H       -9.18265634      -4.93333588      -6.21040404
H       -6.35757156      -2.54175984      -3.94126448
H       -1.74470600       0.78146191      -1.96995478
C       -8.24650545      -4.49478299      -3.75107497
C       -8.60493402      -5.06152054      -2.74869106
Br      -9.18448272      -5.97788722      -1.12792105
C       -0.88413867       0.88413867       0.88413867
C       -1.22445803       0.44716677       2.16638176
C       -2.03495259       1.24563625       2.97143386
C       -2.49253885       2.46656797       2.48255460
O       -3.30695664       3.21704634       3.29526086
C       -2.15580627       2.92388791       1.19555091
C       -2.65749527       4.19793897       0.64158691
H       -2.53929414       4.35435576      -0.42719557
N       -3.35711732       5.02423841       1.44171069
N       -4.01030201       6.02939016       0.63637858
C       -4.78769120       6.88448417       1.32589410
C       -5.97363057       7.60478048       0.72342521
O       -6.46390422       7.58539188      -0.39369191
N       -6.46479260       8.38757378       1.77044604
C       -5.68189325       8.26238069       2.91324118
C       -5.86403013       8.93460970       4.10644439
C       -4.92894725       8.70871584       5.11924398
C       -3.84888468       7.83015298       4.90552609
C       -3.68847479       7.15634704       3.69451571
C       -4.62685216       7.37009813       2.70006259
C       -1.34296639       2.11006709       0.39748070
H       -0.87199862      -0.50638900       2.54243954
H       -2.32366835       0.93232861       3.96733863
H       -3.50290055       4.02065589       2.70066277
H       -7.26305556       8.97475701       1.64599766
H       -6.69235403       9.61572485       4.24674491
H       -5.03575934       9.22130036       6.06933656
H       -2.86278157       6.47869193       3.49912237
H       -1.08502301       2.44892425      -0.60074840
C       -2.88926883       7.64075055       5.96234403
C       -2.08559056       7.48212602       6.84742905
Br      -0.78611077       7.22564356       8.27853666
C        0.88413867      -0.88413867       0.88413867
C        1.46528612      -2.03208504       0.34063539
C        2.26469075      -2.84332140       1.14401056
C        2.46989782      -2.49518026       2.47658333
O        3.24550316      -3.32953011       3.24423056
C        1.89600029      -1.34043056       3.03881424
C        2.06977893      -0.96932432       4.45791790
H        1.40916902      -0.20301369       4.85427162
N        2.91818264      -1.68648067       5.21840311
N        2.69838028      -1.36796591       6.60972456
C        3.45634979      -2.06831073       7.47340896
C        3.04499665      -2.35656493       8.90027469
O        2.04612730      -2.06986179       9.53961511
N        4.11887894      -3.07863439       9.42529910
C        5.14767822      -3.21114382       8.49869308
C        6.36603870      -3.82650153       8.71254398
C        7.28930995      -3.80299819       7.66459893
C        6.96887844      -3.16567542       6.45000990
C        5.72929572      -2.55646097       6.25358085
C        4.81139634      -2.59715235       7.28846419
C        1.09351761      -0.53658470       2.22041186
H        1.29914352      -2.30424408      -0.69533844
H        2.72339081      -3.74443517       0.75550961
H        3.21307406      -2.86228323       4.14886193
H        4.11016013      -3.40419581      10.36945429
H        6.59861334      -4.29901899       9.65719146
H        8.25862969      -4.27211721       7.79564936
H        5.45710909      -2.05240714       5.33107964
H        0.63802328       0.35148099       2.64665656
C        7.95419545      -3.13791017       5.40025779
C        8.77939844      -3.11465678       4.52109040
Br      10.11368189      -3.07705802       3.09955109
