142
Properties=species:S:1:pos:R:3 pbc="F F F"
C        1.79404269       1.79404269      -1.79404269
C        2.46571504       1.22404673      -2.87795686
C        3.27713885       2.02390441      -3.68069152
C        3.40482095       3.37916535      -3.38738719
O        4.22988907       4.13233699      -4.18674985
C        2.73209899       3.97031786      -2.30254031
C        2.87943522       5.39716006      -1.95013794
H        2.51461713       5.70694843      -0.97460085
N        3.57832041       6.20140281      -2.77305527
N        3.86505823       7.44448207      -2.09624253
C        4.61064131       8.31179143      -2.80534881
C        5.50173511       9.35748781      -2.17232541
O        5.74270106       9.63398258      -1.00863263
N        6.05924444      10.03363204      -3.25964801
C        5.56690906       9.55219572      -4.46812241
C        5.87667674      10.03195206      -5.72616749
C        5.22794613       9.44406332      -6.81460970
C        4.29485741       8.40877230      -6.61064612
Br       3.41349351       7.66421699      -8.11516924
C        4.00253911       7.93512031      -5.33139019
C        4.66037857       8.50885370      -4.25749268
C        1.92252514       3.15399076      -1.50371035
H        2.36952057       0.16760213      -3.10063853
H        3.81780674       1.61141505      -4.52382586
H        4.15543061       5.04926851      -3.74923216
H        6.70036323      10.78760815      -3.12555093
H        6.58607201      10.83705496      -5.86140889
H        5.44172345       9.79622802      -7.81815686
H        3.28352736       7.14338531      -5.14339528
H        1.40658867       3.59792424      -0.65839802
C       -1.79404269      -1.79404269      -1.79404269
C       -1.47113266      -3.14362951      -1.95295646
C       -2.26913048      -3.94995052      -2.76265378
C       -3.37565107      -3.39517904      -3.40054337
O       -4.12666362      -4.21432341      -4.20798888
C       -3.71778632      -2.03924371      -3.24792714
C       -4.86512419      -1.41972109      -3.94188795
H       -4.91221470      -0.33415505      -3.94979666
N       -5.70121574      -2.20598788      -4.64557487
N       -6.53941085      -1.38186997      -5.48450200
C       -7.38380496      -2.06458187      -6.27939472
C       -7.90956103      -1.52914742      -7.59283989
O       -7.71635713      -0.48143000      -8.18752914
N       -8.75115312      -2.54058589      -8.06078548
C       -8.83366058      -3.59550837      -7.15805824
C       -9.61329821      -4.72804189      -7.29345620
C       -9.59699992      -5.64754890      -6.24207033
C       -8.81294973      -5.40377418      -5.09755193
Br      -8.84871036      -6.66331517      -3.68085421
C       -8.02758231      -4.25622143      -4.98524587
C       -8.03359476      -3.35643983      -6.03669037
C       -2.90562687      -1.24110440      -2.43349497
H       -0.60579539      -3.57176446      -1.46020139
H       -2.04166879      -4.99826749      -2.91311138
H       -4.83504997      -3.56769237      -4.55118895
H       -9.23763440      -2.44779554      -8.92809236
H      -10.21920901      -4.89092604      -8.17440082
H      -10.19920257      -6.54733996      -6.30956580
H       -7.41867257      -4.03881609      -4.11281929
H       -3.15499935      -0.19136290      -2.31654868
C       -1.79404269       1.79404269       1.79404269
C       -2.74934673       1.19792394       2.62044796
C       -3.56095206       1.99958339       3.42119933
C       -3.40558498       3.38286162       3.38292689
O       -4.23734052       4.14261277       4.16902262
C       -2.44562962       3.99938162       2.55994593
C       -2.28597520       5.46537405       2.47538398
H       -1.69110833       5.85248270       1.65257538
N       -2.99202079       6.24587825       3.31487945
N       -2.93343306       7.61452902       2.85782074
C       -3.65198364       8.48375667       3.59204124
C       -4.21853277       9.77310565       3.03990991
O       -4.17784970      10.27770187       1.92976470
N       -4.86072339      10.35883637       4.13296473
C       -4.70061746       9.59941923       5.28719050
C       -5.16886290       9.91875448       6.54717891
C       -4.85135073       9.04529364       7.58997477
C       -4.07813135       7.89437755       7.34176693
Br      -3.64298182       6.75584333       8.79405460
C       -3.62159494       7.58783322       6.05962146
C       -3.95308082       8.44702273       5.02662141
C       -1.63926799       3.18152471       1.75943354
H       -2.87251334       0.12126622       2.64398168
H       -4.31660072       1.56932427       4.06712267
H       -3.92976133       5.08593691       3.93823305
H       -5.33118226      11.23560757       4.04673247
H       -5.74988252      10.81440215       6.72025119
H       -5.19763599       9.26395781       8.59451453
H       -3.01873580       6.71183258       5.83973956
H       -0.90197055       3.64739776       1.11354262
C        1.79404269      -1.79404269       1.79404269
C        1.64577124      -3.18185187       1.74009552
C        2.44350086      -3.98966200       2.54857192
C        3.37533450      -3.39831572       3.39772326
O        4.12896123      -4.22415664       4.19585804
C        3.54084064      -2.00279714       3.46131939
C        4.49688484      -1.35066408       4.37918430
H        4.39060065      -0.27930680       4.52625895
N        5.34220737      -2.11930746       5.09126365
N        5.94818592      -1.32417482       6.13342208
C        6.77605489      -2.00278356       6.94894309
C        7.05731783      -1.59578122       8.37844929
O        6.64845642      -0.67293335       9.06392650
N        7.96831162      -2.55209220       8.83212068
C        8.30706859      -3.45253960       7.82761901
C        9.21475342      -4.48897920       7.93106367
C        9.45568773      -5.24768572       6.78324570
C        8.79115507      -4.94418746       5.57893331
Br       9.17539159      -5.97964225       4.03784590
C        7.87291935      -3.89691472       5.49921554
C        7.62462524      -3.15885667       6.64324305
C        2.73091686      -1.20409687       2.64521252
H        0.91550166      -3.63954022       1.08271935
H        2.34798359      -5.06858507       2.53647900
H        4.69278137      -3.55007434       4.71107557
H        8.32734088      -2.52254570       9.76363572
H        9.72517230      -4.69796704       8.86139652
H       10.16482231      -6.06763907       6.82364694
H        7.35089877      -3.63590915       4.58350002
H        2.84366801      -0.12577463       2.69346829
C       -0.00445707       0.01189536      -1.78238275
H       -0.66409135       0.67374010      -2.43557963
H        0.65740317      -0.63156657      -2.45157240
C       -0.90989263      -0.90692880      -0.91072765
C        0.90977584       0.90977584      -0.90977584
C       -0.00465871       1.77757030       0.00794375
H       -0.66225468       2.44313916      -0.64384735
H        0.64322798       2.43503045       0.67728295
C       -1.78241447       0.00034974      -0.00472694
H       -2.45427497      -0.65498947       0.64260836
H       -2.43311707       0.67328779      -0.65473579
C       -0.91132561       0.90220522       0.91563759
C       -0.01476271      -0.02253852       1.78660255
H       -0.67934791      -0.69751639       2.42135241
H        0.63392994       0.61504881       2.47327442
C        0.01484550      -1.77751727      -0.01636693
H        0.67870853      -2.42144646      -0.68295456
H       -0.62264859      -2.45592969       0.64226336
C        1.78714474       0.01002794       0.00389507
H        2.44202412       0.67113390       0.66197326
H        2.45385902      -0.65136977      -0.64189061
C        0.91606151      -0.90478549       0.90901405
