174
Properties=species:S:1:pos:R:3 pbc="F F F"
C        1.79138335       1.79138335      -1.79138335
C        3.01588220       2.24602329      -1.31297315
C        3.83577552       3.02842318      -2.13304499
C        3.44112506       3.36448167      -3.43661892
C        2.19052688       2.91827436      -3.88880848
C        1.37065306       2.12782536      -3.07566780
N        4.27534629       4.06540122      -4.33851951
C        5.65047888       4.20572155      -4.24487616
N        6.31565337       5.30433287      -4.45806883
C        5.72777883       6.53321161      -4.76148858
C        6.11890613       7.17861298      -5.93896040
C        5.68051173       8.47308612      -6.22699073
C        4.84522494       9.12903786      -5.32663916
C        4.44373875       8.49999690      -4.14863739
C        4.89455044       7.20679251      -3.86356233
C        6.51839667       2.99555741      -3.95866080
C        7.81127803       3.18500220      -3.44876802
C        8.63715264       2.09069982      -3.18651853
C        8.17726790       0.79779785      -3.42977464
C        6.89905317       0.59884116      -3.94978828
C        6.07617175       1.69345402      -4.22702088
H        3.35142432       1.98940939      -0.31034133
H        4.78896546       3.36773008      -1.73665921
H        1.86335775       3.14537550      -4.90124925
H        0.41980795       1.76844514      -3.45949524
H        3.79409473       4.85445412      -4.75598247
H        6.80277877       6.67583834      -6.61877498
H        6.01700990       8.96257708      -7.13681357
H        3.80892157       9.01653207      -3.43392123
H        4.62432402       6.73860952      -2.92106391
H        8.18415242       4.18913174      -3.25832283
H        9.63917854       2.25063637      -2.79772228
H        8.81904626      -0.05420486      -3.22221946
H        6.54359738      -0.40953985      -4.14651480
H        5.09475564       1.51467210      -4.65618659
C        4.41607003      10.47564337      -5.60246461
C        4.05665279      11.60342548      -5.83346842
Br       3.47550551      13.42695377      -6.20698205
C       -1.79138335      -1.79138335      -1.79138335
C       -2.55704780      -2.80077676      -1.21705408
C       -3.38717608      -3.58766099      -2.02240662
C       -3.46013770      -3.37496908      -3.40711888
C       -2.65896427      -2.36986648      -3.96877898
C       -1.83375242      -1.57403475      -3.16635906
N       -4.35702969      -4.07365522      -4.24858212
C       -5.49116514      -4.76146243      -3.84844901
N       -5.86164852      -5.93021227      -4.28619427
C       -5.13062155      -6.69781410      -5.19404336
C       -5.76106489      -7.09928643      -6.37612819
C       -5.13763047      -7.98732236      -7.25563576
C       -3.87254249      -8.48063210      -6.94772736
C       -3.22834932      -8.08962523      -5.77439849
C       -3.86351437      -7.20677112      -4.89461979
C       -6.47005026      -4.11542752      -2.88713710
C       -7.35538681      -4.92702815      -2.16263328
C       -8.27529462      -4.35986927      -1.27920711
C       -8.31688904      -2.97704302      -1.11090833
C       -7.45099227      -2.16008594      -1.83660439
C       -6.53950513      -2.72462900      -2.73251252
H       -2.52855686      -2.97854840      -0.14406978
H       -3.97775387      -4.36707127      -1.54852961
H       -2.70666246      -2.16677294      -5.03654710
H       -1.24575517      -0.78130182      -3.62069134
H       -3.88368427      -4.46548193      -5.05536512
H       -6.76506314      -6.74107065      -6.59125831
H       -5.65739797      -8.30288119      -8.15612139
H       -2.25006366      -8.48863039      -5.52068081
H       -3.38342079      -6.94478211      -3.95579456
H       -7.33629354      -6.00756636      -2.28774709
H       -8.96040930      -4.99868048      -0.72844742
H       -9.03070657      -2.53589565      -0.42045864
H       -7.48901330      -1.08093553      -1.71062350
H       -5.89344301      -2.06638521      -3.30578611
C       -3.23831235      -9.42142876      -7.83443688
C       -2.70714461     -10.20934597      -8.57705611
Br      -1.84829130     -11.48334144      -9.77780858
C       -1.79138335       1.79138335       1.79138335
C       -1.56376733       1.84863936       3.16247194
C       -2.35290333       2.68005718       3.96428319
C       -3.37590932       3.46067616       3.40564017
C       -3.60577466       3.36674206       2.02509300
C       -2.81334403       2.54347794       1.21732425
N       -4.13301491       4.39102370       4.15522842
C       -3.78612647       4.93261141       5.38233870
N       -4.59053291       5.09444324       6.39307891
C       -5.92573131       4.68846650       6.40828121
C       -6.90412843       5.64930215       6.68304893
C       -8.24052621       5.28263482       6.85742755
C       -8.60069009       3.94129710       6.75891477
C       -7.63864017       2.97007997       6.48365290
C       -6.30093897       3.34476396       6.31920234
C       -2.38961452       5.48171462       5.60128574
C       -1.90795249       5.62642773       6.91066803
C       -0.63103351       6.13987134       7.14346614
C        0.17602513       6.51119537       6.06967016
C       -0.29822783       6.38474656       4.76470821
C       -1.58169822       5.88497348       4.52997495
H       -0.76875305       1.26305504       3.61936696
H       -2.15218128       2.70933446       5.03183901
H       -4.37868649       3.97337732       1.55791869
H       -2.99080322       2.51108865       0.14585646
H       -5.12887964       4.26359774       4.01205394
H       -6.60987970       6.68993293       6.79757946
H       -8.97855135       6.04433960       7.09350961
H       -7.91254082       1.92014967       6.42668438
H       -5.54462041       2.58157859       6.15779846
H       -2.52925553       5.34434045       7.75801101
H       -0.27158592       6.25330488       8.16264639
H        1.17145757       6.90758587       6.25093256
H        0.32883814       6.68166653       3.92774394
H       -1.93879966       5.82037754       3.50643712
C       -9.97130120       3.55321236       6.96966443
C      -11.11918801       3.22819140       7.14616728
Br     -12.97522389       2.70265998       7.43155746
C        1.79138335      -1.79138335       1.79138335
C        1.36181276      -2.14745635       3.06560953
C        2.15705634      -2.97996406       3.86022330
C        3.38745995      -3.46369314       3.39107256
C        3.81366296      -3.06993126       2.11401550
C        3.01775756      -2.24469844       1.31169023
N        4.17914084      -4.38705546       4.11307073
C        3.75052531      -5.20340867       5.14714261
N        4.39802074      -5.42552048       6.25451384
C        5.60990599      -4.82095580       6.59161723
C        6.69795481      -5.64682854       6.89169617
C        7.89300158      -5.11078269       7.37680431
C        7.99912754      -3.73548545       7.56628898
C        6.92498324      -2.89684179       7.27054801
C        5.72862389      -3.44276967       6.79351172
C        2.46923869      -6.00147364       5.00190254
C        1.82049980      -6.47113434       6.15341410
C        0.64589023      -7.21813538       6.05034539
C        0.10864668      -7.50041925       4.79577447
C        0.75302105      -7.05048068       3.64418088
C        1.93691655      -6.31528806       3.74444204
H        0.40602394      -1.79630502       3.44884608
H        1.79689206      -3.24616959       4.85029311
H        4.75376165      -3.44303145       1.71318939
H        3.35543157      -1.97846395       0.31385281
H        5.14163181      -4.07614580       4.18675371
H        6.59514562      -6.72352656       6.77871992
H        8.71622197      -5.77505265       7.62512593
H        6.99705656      -1.82549717       7.43682114
H        4.87541299      -2.79438874       6.61419573
H        2.23149112      -6.26145904       7.13865682
H        0.15605412      -7.58198817       6.94949491
H       -0.80773988      -8.07896313       4.71583760
H        0.33764060      -7.27743938       2.66549235
H        2.43458801      -5.99824947       2.83277685
C        9.21732613      -3.18021591       8.09663597
C       10.23756745      -2.71517767       8.54080157
Br      11.88721138      -1.96325017       9.25897978
C       -0.00445707       0.01189536      -1.78238275
H       -0.66409135       0.67374010      -2.43557963
H        0.65740317      -0.63156657      -2.45157240
C       -0.90989263      -0.90692880      -0.91072765
C        0.90977584       0.90977584      -0.90977584
C       -0.00465871       1.77757030       0.00794375
H       -0.66225468       2.44313916      -0.64384735
H        0.64322798       2.43503045       0.67728295
C       -1.78241447       0.00034974      -0.00472694
H       -2.45427497      -0.65498947       0.64260836
H       -2.43311707       0.67328779      -0.65473579
C       -0.91132561       0.90220522       0.91563759
C       -0.01476271      -0.02253852       1.78660255
H       -0.67934791      -0.69751639       2.42135241
H        0.63392994       0.61504881       2.47327442
C        0.01484550      -1.77751727      -0.01636693
H        0.67870853      -2.42144646      -0.68295456
H       -0.62264859      -2.45592969       0.64226336
C        1.78714474       0.01002794       0.00389507
H        2.44202412       0.67113390       0.66197326
H        2.45385902      -0.65136977      -0.64189061
C        0.91606151      -0.90478549       0.90901405
