153
Properties=species:S:1:pos:R:3 pbc="F F F"
C        0.00000000       0.00000000       0.00000000
C        0.88147933       0.88147933      -0.88147933
C        2.10597818       1.33611926      -0.40306913
C        2.92587149       2.11851916      -1.22314097
C        2.53122104       2.45457764      -2.52671490
C        1.28062286       2.00837034      -2.97890446
C        0.46074904       1.21792134      -2.16576378
N        3.36544227       3.15549720      -3.42861548
C        4.74057485       3.29581753      -3.33497213
N        5.40574935       4.39442884      -3.54816480
C        4.81787480       5.62330758      -3.85158456
C        5.20900211       6.26870895      -5.02905638
C        4.77060770       7.56318210      -5.31708671
C        3.93532091       8.21913384      -4.41673513
C        3.53383473       7.59009288      -3.23873336
C        3.98464641       6.29688848      -2.95365831
C        5.60849265       2.08565339      -3.04875677
C        6.90137400       2.27509817      -2.53886400
C        7.72724862       1.18079579      -2.27661451
C        7.26736387      -0.11210617      -2.51987062
C        5.98914914      -0.31106287      -3.03988426
C        5.16626772       0.78354999      -3.31711686
H        2.44152029       1.07950537       0.59956270
H        3.87906144       2.45782606      -0.82675519
H        0.95345373       2.23547147      -3.99134522
H       -0.49009607       0.85854112      -2.54959121
H        2.88419071       3.94455010      -3.84607844
H        5.89287475       5.76593431      -5.70887096
H        5.10710588       8.05267306      -6.22690954
H        2.89901755       8.10662804      -2.52401720
H        3.71442000       5.82870550      -2.01115988
H        7.27424839       3.27922772      -2.34841880
H        8.72927452       1.34073235      -1.88781826
H        7.90914223      -0.96410888      -2.31231543
H        5.63369336      -1.31944388      -3.23661077
H        4.18485162       0.60476807      -3.74628257
C        3.50616600       9.56573934      -4.69256058
C        3.14674876      10.69352145      -4.92356440
Br       2.56560149      12.51704974      -5.29707803
C       -0.88147933      -0.88147933      -0.88147933
C       -2.12007762      -1.30982986      -0.41525909
C       -2.93938535      -2.09224145      -1.23590482
C       -2.53009855      -2.45452583      -2.52788919
C       -1.26593960      -2.03459783      -2.96736022
C       -0.44642014      -1.24424650      -2.15376751
N       -3.36121153      -3.15652923      -3.43181419
C       -4.73963161      -3.27431055      -3.35742235
N       -5.41846284      -4.36579239      -3.56408776
C       -4.84518721      -5.60809436      -3.83948537
C       -5.22823036      -6.26565937      -5.01287772
C       -4.80565455      -7.57101272      -5.27420923
C       -3.99454586      -8.22559805      -4.35104597
C       -3.60140874      -7.58453989      -3.17671233
C       -4.03637336      -6.28031085      -2.91850900
C       -5.59291141      -2.04669940      -3.10329199
C       -6.89623525      -2.20838172      -2.61071920
C       -7.70891615      -1.09762090      -2.37812186
C       -7.22531836       0.18415208      -2.63396205
C       -5.93635485       0.35541122      -3.13702690
C       -5.12644191      -0.75584711      -3.38464556
H       -2.46689848      -1.03255426       0.57798978
H       -3.90369081      -2.41071458      -0.84923729
H       -0.92688079      -2.28239201      -3.97099762
H        0.51566086      -0.90547371      -2.52822341
H       -2.88595045      -3.95925078      -3.82961802
H       -5.89371803      -5.76310409      -5.71085790
H       -5.13575491      -8.06937991      -6.18155366
H       -2.98571302      -8.09955894      -2.44439083
H       -3.77336042      -5.80172415      -1.97920082
H       -7.28754588      -3.20360391      -2.41074513
H       -8.71914136      -1.23613680      -2.00254696
H       -7.85687627       1.04900259      -2.44947511
H       -5.56229645       1.35505285      -3.34361665
H       -4.13591067      -0.59880241      -3.80118918
C       -3.58220461      -9.58274019      -4.59952112
C       -3.23686881     -10.71934674      -4.80761906
Br      -2.67849004     -12.55714339      -5.14409583
C       -0.88147933       0.88147933       0.88147933
C       -0.64325802       0.95174960       2.25015895
C       -1.43263620       1.78326796       3.05162746
C       -2.46645593       2.55100892       2.49504873
C       -2.70670389       2.44396768       1.11722608
C       -1.91414592       1.62058056       0.30970767
N       -3.22503462       3.48128375       3.24323659
C       -2.87266139       4.03564452       4.46305859
N       -3.67016092       4.19920080       5.47898127
C       -5.00183874       3.78257791       5.50835029
C       -5.98578248       4.73767855       5.78330641
C       -7.31769290       4.36165043       5.97153317
C       -7.66769473       3.01668564       5.88680951
C       -6.70001648       2.05106798       5.61157650
C       -5.36678779       2.43520372       5.43320169
C       -1.47894745       4.59778909       4.66616626
C       -0.98790883       4.75706194       5.97036541
C        0.28662272       5.28269510       6.18858654
C        1.08191798       5.65176694       5.10527936
C        0.59817478       5.51085313       3.80529218
C       -0.68303485       4.99882084       3.58507889
H        0.16017229       0.37635734       2.70527792
H       -1.22353347       1.82286939       4.11723982
H       -3.48828792       3.04050442       0.65147809
H       -2.09999360       1.57802354      -0.75998089
H       -4.22095264       3.34464612       3.10922049
H       -5.69911049       5.78155381       5.88701573
H       -8.05996996       5.11926169       6.20745683
H       -6.96580045       0.99852763       5.56533471
H       -4.60560258       1.67686869       5.27181412
H       -1.60001937       4.47687695       6.82499859
H        0.65336330       5.40733639       7.20385204
H        2.07551907       6.05765839       5.27520946
H        1.21601089       5.80600104       2.96087010
H       -1.04786280       4.92299739       2.56504206
C       -9.03334753       2.61926137       6.11185703
C      -10.17708175       2.28641854       6.30033432
Br     -12.02640325       1.74823985       6.60508616
C        0.88147933      -0.88147933       0.88147933
C        0.42194184      -1.29594735       2.12727738
C        1.21850392      -2.12838944       2.92063826
C        2.48008838      -2.55382550       2.47859970
C        2.93504537      -2.10172752       1.23112476
C        2.13833493      -1.27630558       0.42979364
N        3.27869789      -3.47460747       3.19624960
C        2.84421778      -4.34042308       4.18672365
N        3.46143290      -4.57904388       5.30786622
C        4.63950900      -3.94615433       5.70710360
C        5.74493894      -4.74490198       6.01692652
C        6.90360263      -4.18617006       6.56110381
C        6.95534976      -2.81551196       6.80032816
C        5.86321751      -2.00369162       6.49575183
C        4.70331526      -2.57261916       5.95925878
C        1.59710364      -5.17560036       3.97019880
C        0.92673763      -5.70662386       5.08197469
C       -0.21702102      -6.48867645       4.91300349
C       -0.70160139      -6.74502622       3.63170349
C       -0.03490540      -6.23384569       2.51903023
C        1.11863384      -5.46317753       2.68512320
H       -0.55784396      -0.99070408       2.48860285
H        0.83472217      -2.44086777       3.88805274
H        3.90051532      -2.42880939       0.85094572
H        2.49991310      -0.96428452      -0.54616136
H        4.22675739      -3.13424787       3.31381399
H        5.68353534      -5.81986298       5.86428170
H        7.74062980      -4.83061179       6.81544689
H        5.89231466      -0.93696724       6.70038090
H        3.83456445      -1.94745915       5.77226179
H        1.29680223      -5.51766842       6.08742426
H       -0.72386434      -6.89988460       5.78180487
H       -1.59408268      -7.35093746       3.50049400
H       -0.40897277      -6.44044010       1.51939293
H        1.63535416      -5.09802939       1.80251871
C        8.13494697      -2.23837498       7.39114398
C        9.12285963      -1.75502276       7.88595223
Br      10.72023084      -0.97348309       8.68601532
