145
Properties=species:S:1:pos:R:3 pbc="F F F"
C        0.00000000       0.00000000       0.00000000
C        0.88147933       0.88147933      -0.88147933
C        2.10597818       1.33611926      -0.40306913
C        2.92587149       2.11851916      -1.22314097
C        2.53122104       2.45457764      -2.52671490
C        1.28062286       2.00837034      -2.97890446
C        0.46074904       1.21792134      -2.16576378
N        3.36544227       3.15549720      -3.42861548
C        4.74057485       3.29581753      -3.33497213
N        5.40574935       4.39442884      -3.54816480
C        4.81787480       5.62330758      -3.85158456
C        5.20900211       6.26870895      -5.02905638
C        4.77060770       7.56318210      -5.31708671
C        3.93532091       8.21913384      -4.41673513
Br       3.37194137       9.98691041      -4.77882913
C        3.53383473       7.59009288      -3.23873336
C        3.98464641       6.29688848      -2.95365831
C        5.60849265       2.08565339      -3.04875677
C        6.90137400       2.27509817      -2.53886400
C        7.72724862       1.18079579      -2.27661451
C        7.26736387      -0.11210617      -2.51987062
C        5.98914914      -0.31106287      -3.03988426
C        5.16626772       0.78354999      -3.31711686
H        2.44152029       1.07950537       0.59956270
H        3.87906144       2.45782606      -0.82675519
H        0.95345373       2.23547147      -3.99134522
H       -0.49009607       0.85854112      -2.54959121
H        2.88419071       3.94455010      -3.84607844
H        5.89287475       5.76593431      -5.70887096
H        5.10710588       8.05267306      -6.22690954
H        2.89901755       8.10662804      -2.52401720
H        3.71442000       5.82870550      -2.01115988
H        7.27424839       3.27922772      -2.34841880
H        8.72927452       1.34073235      -1.88781826
H        7.90914223      -0.96410888      -2.31231543
H        5.63369336      -1.31944388      -3.23661077
H        4.18485162       0.60476807      -3.74628257
C       -0.88147933      -0.88147933      -0.88147933
C       -2.15046018      -1.24880656      -0.44589982
C       -2.96837779      -2.03131410      -1.26783973
C       -2.52742507      -2.45454216      -2.53054635
C       -1.23416240      -2.09555067      -2.93818458
C       -0.41549658      -1.30537775      -2.12355982
N       -3.35128071      -3.15936142      -3.43891282
C       -4.73483656      -3.22586985      -3.41065810
N       -5.44527333      -4.29963514      -3.60343453
C       -4.90828244      -5.57050707      -3.81397743
C       -5.27355972      -6.25649174      -4.97671597
C       -4.88986505      -7.58452928      -5.17648218
C       -4.13604775      -8.23315908      -4.20198306
Br      -3.64883286     -10.04337346      -4.44547458
C       -3.76132338      -7.56398038      -3.03735720
C       -4.15732207      -6.23674446      -2.84112668
C       -5.55126097      -1.96060960      -3.23103224
C       -6.87610255      -2.05837736      -2.78085626
C       -7.65547745      -0.91202765      -2.61715382
C       -7.11685249       0.34180570      -2.90008153
C       -5.80563573       0.44926046      -3.36159526
C       -5.02851577      -0.69803573      -3.54038308
H       -2.52162907      -0.92354733       0.52371344
H       -3.95662298      -2.30143450      -0.90558520
H       -0.86930753      -2.39147178      -3.91949111
H        0.57083706      -1.01446101      -2.47441231
H       -2.89187758      -3.99222910      -3.79071257
H       -5.89538585      -5.75661464      -5.71567953
H       -5.20581638      -8.10369449      -6.07717761
H       -3.19088535      -8.07330633      -2.26547111
H       -3.91021499      -5.73381453      -1.91025586
H       -7.31016499      -3.03130184      -2.56042808
H       -8.68264300      -1.00121219      -2.27396994
H       -7.72259838       1.23444700      -2.76919740
H       -5.38841018       1.42696384      -3.58941391
H       -4.01890553      -0.59114580      -3.92585094
C       -0.88147933       0.88147933       0.88147933
C       -0.33793026       1.51043780       1.99679851
C       -1.13967815       2.34187453       2.78597894
C       -2.49014540       2.55244150       2.46992667
C       -3.02434258       1.88677309       1.35678198
C       -2.22432953       1.06119316       0.55891147
N       -3.31467591       3.46041161       3.17446743
C       -2.88638058       4.49629623       3.98868771
N       -3.39342483       4.80852947       5.14638869
C       -4.42067559       4.10035947       5.77173188
C       -5.57884538       4.79741511       6.13050694
C       -6.57983839       4.18392433       6.88711379
C       -6.41885842       2.86123904       7.29109243
Br      -7.74950722       2.03705995       8.35111373
C       -5.27140203       2.15045540       6.94080354
C       -4.26965035       2.77515385       6.19038900
C       -1.79675910       5.43613229       3.51001142
C       -1.07719495       6.18667995       4.45146127
C       -0.07654078       7.06842704       4.03969111
C        0.21477904       7.20610710       2.68380026
C       -0.50393901       6.47539626       1.73863526
C       -1.51608175       5.60331145       2.14754138
H        0.70963844       1.37407977       2.25702164
H       -0.68983437       2.82424072       3.64956759
H       -4.06297565       2.04378084       1.07351394
H       -2.65339499       0.58075118      -0.31610991
H       -4.18802862       3.02945507       3.45733556
H       -5.68048630       5.84189468       5.84529904
H       -7.45978217       4.75337481       7.17353150
H       -5.13294611       1.12485688       7.27185980
H       -3.35313329       2.23744198       5.96371012
H       -1.29740524       6.09185176       5.51263791
H        0.46952612       7.64923656       4.77811469
H        0.99625066       7.88996578       2.36363366
H       -0.28146850       6.58883108       0.68056068
H       -2.07966745       5.06480735       1.39142746
C        0.88147933      -0.88147933       0.88147933
C        0.51398887      -1.13161015       2.19956755
C        1.30694183      -1.96401068       2.99657910
C        2.47318493      -2.55327392       2.48605472
C        2.83941474      -2.26555555       1.16292735
C        2.04486756      -1.44082466       0.35874194
N        3.25243527      -3.48033080       3.21678888
C        2.84266583      -4.20351099       4.32518769
N        3.54540809      -4.39951155       5.40342335
C        4.81074565      -3.85484707       5.62717422
C        5.86397490      -4.72932161       5.91347093
C        7.11791594      -4.24288958       6.29007098
C        7.31885337      -2.86833140       6.38400511
Br       9.00059904      -2.20299022       6.93409164
C        6.28052446      -1.98176755       6.10036896
C        5.02519810      -2.47747132       5.73252378
C        1.50884610      -4.92487532       4.30918138
C        0.90829448      -5.28147303       5.52556865
C       -0.31346971      -5.95628315       5.54184548
C       -0.94630873      -6.27868821       4.34274884
C       -0.35130078      -5.94146019       3.12781113
C        0.87881965      -5.27917890       3.10893602
H       -0.39223753      -0.69724803       2.61645247
H        0.99574819      -2.14624393       4.02165056
H        3.72755616      -2.72183455       0.73087971
H        2.33316102      -1.25758593      -0.67271069
H        4.23468586      -3.22805224       3.21208116
H        5.68928967      -5.80203747       5.87635289
H        7.91377985      -4.94249318       6.53041545
H        6.42769625      -0.90919029       6.19277625
H        4.20293679      -1.78760027       5.56374833
H        1.39367651      -5.03954105       6.46867736
H       -0.76557051      -6.23293794       6.49045769
H       -1.89919719      -6.80089935       4.35564662
H       -0.84167716      -6.19993032       2.19260709
H        1.33509396      -5.05041529       2.15039301
