198
Properties=species:S:1:pos:R:3 pbc="F F F"
C        1.79132841       1.79132841      -1.79132841
C        1.21111755       2.77178469      -2.59039176
C        2.02374768       3.59861611      -3.37180039
C        3.41710252       3.44939552      -3.37087073
C        3.97954137       2.44112065      -2.57431872
C        3.17301195       1.61891848      -1.78137246
N        4.28148026       4.32353038      -4.06684578
C        3.95827944       5.59710747      -4.52198376
N        3.39346101       6.56518497      -3.86136159
C        3.12965672       6.52276785      -2.48449430
C        4.06105838       6.08286123      -1.53559382
C        3.75357625       6.08753254      -0.17226993
C        2.52380312       6.58251293       0.25260986
C        1.60547552       7.07525026      -0.67065845
C        1.91361773       7.04461888      -2.03359181
C        4.33547799       5.90849108      -5.95828751
C        4.11318164       4.89074342      -6.90311197
C        4.42248677       5.09189492      -8.24425530
C        4.93824543       6.31677533      -8.65785784
C        5.16055809       7.35674633      -7.74311173
C        5.66913337       8.58530614      -8.20246415
C        5.90976492       9.64059854      -7.32642158
C        5.66160948       9.47591314      -5.97291518
C        5.16322038       8.25898724      -5.50099002
C        4.87424357       7.17001266      -6.36417729
H        0.13412864       2.91697521      -2.60070670
H        1.55334762       4.37324127      -3.97394621
H        5.05875224       2.32006156      -2.52748881
H        3.63313383       0.86630919      -1.14661266
H        4.99057229       3.81791840      -4.58696814
H        5.03131807       5.71736015      -1.85750024
H        4.47921425       5.70798959       0.54108754
H        0.65500470       7.48806706      -0.34616349
H        1.20481595       7.43854667      -2.75784455
H        3.67199013       3.94192632      -6.60838080
H        4.24774349       4.30364886      -8.97152047
H        5.16246560       6.45828734      -9.71424762
H        5.87835063       8.73301462      -9.25984726
H        6.29187456      10.58641893      -7.70017894
H        5.84721092      10.28931549      -5.27704665
H        4.99278208       8.18039189      -4.42982411
C        2.20635475       6.59770992       1.65710108
C        1.94049173       6.61043740       2.83336247
Br       1.51061373       6.63101666       4.73527766
C       -1.79132841      -1.79132841      -1.79132841
C       -1.23609953      -2.87950136      -2.45769311
C       -2.05241474      -3.70355641      -3.23819303
C       -3.42352596      -3.44520747      -3.36863534
C       -3.95851836      -2.33102522      -2.70543715
C       -3.14957091      -1.51009575      -1.91363624
N       -4.30204392      -4.30482337      -4.06498913
C       -4.05439461      -5.63429822      -4.38867784
N       -3.62869762      -6.58369042      -3.60761953
C       -3.47181850      -6.44423880      -2.22086157
C       -4.43406737      -5.85232463      -1.39312144
C       -4.23677983      -5.76425261      -0.01234627
C       -3.09144345      -6.31653614       0.55427340
C       -2.14873814      -6.95768787      -0.24495822
C       -2.34448420      -7.01989135      -1.62745287
C       -4.34228159      -6.03702374      -5.82295125
C       -3.95952349      -5.12486834      -6.82264519
C       -4.17803748      -5.41531069      -8.16528882
C       -4.76272289      -6.62658364      -8.52357207
C       -5.14502839      -7.56339072      -7.55199704
C       -5.71928123      -8.78281167      -7.95481075
C       -6.11803810      -9.73671004      -7.02203690
C       -5.96436254      -9.47659339      -5.66948187
C       -5.40221794      -8.26684330      -5.25413640
C       -4.95357070      -7.28220843      -6.17265439
H       -0.17810751      -3.10966208      -2.36404097
H       -1.60413799      -4.56172929      -3.73466782
H       -5.02367262      -2.12152197      -2.76110802
H       -3.59210536      -0.67180143      -1.38214888
H       -4.92181729      -3.79128542      -4.68235612
H       -5.34090798      -5.44029949      -1.82497098
H       -4.98124343      -5.26875860       0.60388572
H       -1.26581644      -7.41492039       0.19150159
H       -1.61711575      -7.52927710      -2.25481433
H       -3.46319790      -4.19208550      -6.56701384
H       -3.87938970      -4.70866291      -8.93486021
H       -4.91410835      -6.84007719      -9.58081501
H       -5.85621950      -9.00372980      -9.01126321
H       -6.54918532     -10.67796579      -7.35132132
H       -6.27347314     -10.21006247      -4.93003745
H       -5.31081400      -8.11032038      -4.18186370
C       -2.88841300      -6.23617225       1.97762166
C       -2.71837500      -6.16886749       3.16967583
Br      -2.44343794      -6.06004139       5.09712661
C       -1.79132841       1.79132841       1.79132841
C       -1.78527050       3.17181323       1.61621027
C       -2.61771511       3.97328717       2.40316190
C       -3.45390527       3.40813939       3.37532411
C       -3.42877490       2.01657980       3.54962603
C       -2.60733536       1.20853467       2.75743286
N       -4.38087803       4.16750188       4.12347651
C       -4.85605351       5.43112323       3.79019393
N       -5.33865730       5.83118318       2.65016709
C       -5.59251561       4.97853185       1.56587141
C       -6.24220837       3.74435616       1.69294891
C       -6.49344553       2.94682470       0.57310848
C       -6.13797697       3.40731778      -0.69158855
C       -5.54059705       4.65559681      -0.84480963
C       -5.27273524       5.43523420       0.28385898
C       -4.83663555       6.46578949       4.89983154
C       -3.69836109       6.48303999       5.72563594
C       -3.59209035       7.40334644       6.76320020
C       -4.61166732       8.32714541       6.97406587
C       -5.75464930       8.34472387       6.16104298
C       -6.75659562       9.30369318       6.39661486
C       -7.90911624       9.35108377       5.61658503
C       -8.08468763       8.42666839       4.59908178
C       -7.10147247       7.46377949       4.35794567
C       -5.89849101       7.40139123       5.10855128
H       -1.15551673       3.63502510       0.86126872
H       -2.61460377       5.04863739       2.23729394
H       -4.08817651       1.54462604       4.27350006
H       -2.62900705       0.12977409       2.88727454
H       -4.34825818       3.93652264       5.11067800
H       -6.54368015       3.38900813       2.67349018
H       -6.96658010       1.97776723       0.70176898
H       -5.28460843       5.03437589      -1.82974908
H       -4.81679315       6.41554772       0.16886630
H       -2.87206805       5.79833207       5.55189713
H       -2.71026955       7.41458281       7.39806045
H       -4.50372103       9.04716364       7.78411589
H       -6.64235846      10.03352708       7.19532698
H       -8.66744826      10.10582631       5.80519786
H       -8.97999279       8.44948810       3.98409216
H       -7.29210357       6.75825397       3.55264054
C       -6.40322288       2.59289749      -1.84915678
C       -6.62536633       1.91082050      -2.81862017
Br      -6.98455351       0.80795969      -4.38616048
C        1.79132841      -1.79132841       1.79132841
C        1.83477098      -3.16504440       1.57347863
C        2.66763427      -3.96509645       2.36143346
C        3.45487530      -3.40567569       3.37681778
C        3.37994696      -2.02183477       3.59319901
C        2.55803021      -1.21471018       2.80056251
N        4.38202916      -4.15949449       4.13033276
C        4.90739153      -5.39652359       3.77345555
N        5.43756307      -5.74485743       2.63758706
C        5.69749419      -4.85057536       1.58884932
C        6.30320777      -3.60157630       1.77472937
C        6.56337994      -2.76130580       0.68869297
C        6.26209458      -3.19196199      -0.60035037
C        5.70990126      -4.45259721      -0.81111424
C        5.43227642      -5.27578755       0.28376445
C        4.88669630      -6.46619629       4.84936399
C        3.72454827      -6.54501374       5.63747502
C        3.61566473      -7.50082571       6.64214654
C        4.65720474      -8.39889867       6.85677519
C        5.82477221      -8.35513819       6.08050575
C        6.84905752      -9.28968101       6.31816512
C        8.02608527      -9.27646147       5.57423830
C        8.20344905      -8.31504102       4.59194772
C        7.19792339      -7.37582529       4.34944895
C        5.97091621      -7.37468376       5.06283355
H        1.24378690      -3.62317850       0.78484515
H        2.70399189      -5.03418374       2.16235947
H        4.00123165      -1.55305820       4.35201276
H        2.54122033      -0.14049140       2.96434394
H        4.31152338      -3.96127248       5.12266296
H        6.56269845      -3.26855923       2.77492078
H        7.00112570      -1.78267595       0.86231466
H        5.49673296      -4.80747451      -1.81497222
H        5.01164265      -6.26556678       0.12399774
H        2.88258614      -5.88100071       5.45871039
H        2.71543246      -7.55960395       7.24787641
H        4.54729162      -9.14740819       7.64030075
H        6.73352394     -10.04782913       7.08985944
H        8.80192945     -10.01301744       5.76352554
H        9.11762493      -8.29050243       4.00544570
H        7.39075547      -6.63938742       3.57285518
C        6.53688969      -2.33318136      -1.72310746
C        6.76703060      -1.61395259      -2.66341652
Br       7.13914898      -0.45102049      -4.18381675
C       -0.00445707       0.01189536      -1.78238275
H       -0.66409135       0.67374010      -2.43557963
H        0.65740317      -0.63156657      -2.45157240
C       -0.90989263      -0.90692880      -0.91072765
C        0.90977584       0.90977584      -0.90977584
C       -0.00465871       1.77757030       0.00794375
H       -0.66225468       2.44313916      -0.64384735
H        0.64322798       2.43503045       0.67728295
C       -1.78241447       0.00034974      -0.00472694
H       -2.45427497      -0.65498947       0.64260836
H       -2.43311707       0.67328779      -0.65473579
C       -0.91132561       0.90220522       0.91563759
C       -0.01476271      -0.02253852       1.78660255
H       -0.67934791      -0.69751639       2.42135241
H        0.63392994       0.61504881       2.47327442
C        0.01484550      -1.77751727      -0.01636693
H        0.67870853      -2.42144646      -0.68295456
H       -0.62264859      -2.45592969       0.64226336
C        1.78714474       0.01002794       0.00389507
H        2.44202412       0.67113390       0.66197326
H        2.45385902      -0.65136977      -0.64189061
C        0.91606151      -0.90478549       0.90901405
