190
Properties=species:S:1:pos:R:3 pbc="F F F"
C        1.79132841       1.79132841      -1.79132841
C        1.21111755       2.77178469      -2.59039176
C        2.02374768       3.59861611      -3.37180039
C        3.41710252       3.44939552      -3.37087073
C        3.97954137       2.44112065      -2.57431872
C        3.17301195       1.61891848      -1.78137246
N        4.28148026       4.32353038      -4.06684578
C        3.95827944       5.59710747      -4.52198376
N        3.39346101       6.56518497      -3.86136159
C        3.12965672       6.52276785      -2.48449430
C        4.06105838       6.08286123      -1.53559382
C        3.75357625       6.08753254      -0.17226993
C        2.52380312       6.58251293       0.25260986
Br       2.10718010       6.60245764       2.09588084
C        1.60547552       7.07525026      -0.67065845
C        1.91361773       7.04461888      -2.03359181
C        4.33547799       5.90849108      -5.95828751
C        4.11318164       4.89074342      -6.90311197
C        4.42248677       5.09189492      -8.24425530
C        4.93824543       6.31677533      -8.65785784
C        5.16055809       7.35674633      -7.74311173
C        5.66913337       8.58530614      -8.20246415
C        5.90976492       9.64059854      -7.32642158
C        5.66160948       9.47591314      -5.97291518
C        5.16322038       8.25898724      -5.50099002
C        4.87424357       7.17001266      -6.36417729
H        0.13412864       2.91697521      -2.60070670
H        1.55334762       4.37324127      -3.97394621
H        5.05875224       2.32006156      -2.52748881
H        3.63313383       0.86630919      -1.14661266
H        4.99057229       3.81791840      -4.58696814
H        5.03131807       5.71736015      -1.85750024
H        4.47921425       5.70798959       0.54108754
H        0.65500470       7.48806706      -0.34616349
H        1.20481595       7.43854667      -2.75784455
H        3.67199013       3.94192632      -6.60838080
H        4.24774349       4.30364886      -8.97152047
H        5.16246560       6.45828734      -9.71424762
H        5.87835063       8.73301462      -9.25984726
H        6.29187456      10.58641893      -7.70017894
H        5.84721092      10.28931549      -5.27704665
H        4.99278208       8.18039189      -4.42982411
C       -1.79132841      -1.79132841      -1.79132841
C       -3.17559304      -1.73852730      -1.65917367
C       -3.98093848      -2.52309482      -2.49013089
C       -3.41477212      -3.37188127      -3.45071538
C       -2.01685201      -3.42540866      -3.55272007
C       -1.20636401      -2.63417898      -2.73275991
N       -4.18967645      -4.10665508      -4.37552488
C       -5.51264110      -3.84795883      -4.71677074
N       -6.04356853      -2.71218338      -5.06425566
C       -5.30617665      -1.54068003      -5.29006219
C       -4.12727028      -1.50688206      -6.04536111
C       -3.44723389      -0.30511056      -6.26103426
C       -3.97496695       0.88188465      -5.76062389
Br      -3.06605226       2.51168096      -6.05938558
C       -5.17454601       0.87701387      -5.05385208
C       -5.83465363      -0.33329513      -4.82387966
C       -6.44920719      -5.04170148      -4.71134792
C       -6.30059518      -5.95457386      -3.65186799
C       -7.12180909      -7.07373585      -3.56309205
C       -8.11121775      -7.28194738      -4.51971347
C       -8.29379766      -6.38443077      -5.58218772
C       -9.31460436      -6.62166194      -6.52063736
C       -9.52496999      -5.75874371      -7.59307133
C       -8.70411926      -4.65357779      -7.75274075
C       -7.68150370      -4.40897533      -6.83271860
C       -7.45420081      -5.24541866      -5.70881405
H       -3.64113591      -1.07994715      -0.93072750
H       -5.06173863      -2.45258662      -2.38620985
H       -1.54771339      -4.04999660      -4.30859262
H       -0.12669157      -2.66712721      -2.85223690
H       -3.87821481      -5.06932479      -4.44791923
H       -3.72203804      -2.42524931      -6.45889111
H       -2.51602245      -0.31022028      -6.81987358
H       -5.60737014       1.80135333      -4.68321843
H       -6.77744605      -0.34135954      -4.28240158
H       -5.56249217      -5.78859377      -2.87121130
H       -7.00495951      -7.77589631      -2.74205699
H       -8.75167948      -8.15784043      -4.42548064
H       -9.96517323      -7.48765974      -6.41837955
H      -10.32548183      -5.95106742      -8.30192318
H       -8.85436684      -3.97303991      -8.58616631
H       -7.06227433      -3.53242075      -7.00830300
C       -1.79132841       1.79132841       1.79132841
C       -3.15640268       1.88060041       1.53629091
C       -3.96594469       2.66313582       2.36508367
C       -3.42184187       3.36914145       3.44638545
C       -2.04032345       3.28189628       3.67276101
C       -1.22728851       2.49132374       2.85469064
N       -4.21430440       4.09135676       4.36619526
C       -5.58083233       3.92995024       4.56658810
N       -6.23776437       2.82353845       4.75870475
C       -5.62834173       1.57277962       4.93579752
C       -4.53304297       1.36337713       5.78309334
C       -3.98215610       0.08886621       5.94235639
C       -4.56052158      -0.99576320       5.28894782
Br      -3.82723631      -2.72349117       5.51001175
C       -5.68337820      -0.81727769       4.48528373
C       -6.21241916       0.46505462       4.31435464
C       -6.40663466       5.20256843       4.59305349
C       -6.08104968       6.18508061       3.64090673
C       -6.79100677       7.38003494       3.58759528
C       -7.84448123       7.59743693       4.47096045
C       -8.20271888       6.63309481       5.42460246
C       -9.28313048       6.88379685       6.28997633
C       -9.66689051       5.95552987       7.25436466
C       -8.96276280       4.76839763       7.37927736
C       -7.88292507       4.50863016       6.53164240
C       -7.47979747       5.41346852       5.51516753
H       -3.60620076       1.33382468       0.71178512
H       -5.03420915       2.70385713       2.16246882
H       -1.59246221       3.79226108       4.52157932
H       -0.16483529       2.41211778       3.06910259
H       -3.82944581       5.01063741       4.55537560
H       -4.09109344       2.20056733       6.31451768
H       -3.11069725      -0.04174607       6.57716513
H       -6.15724518      -1.66148189       3.99347196
H       -7.09586607       0.60833116       3.69700993
H       -5.28976203       6.01809175       2.91444346
H       -6.53747955       8.13604662       2.84938664
H       -8.39555828       8.53456389       4.40487839
H       -9.84432753       7.81275035       6.21413463
H      -10.51105541       6.16069353       7.90672349
H       -9.24872308       4.03591039       8.12893959
H       -7.36062059       3.56585242       6.67652507
C        1.79132841      -1.79132841       1.79132841
C        1.65643997      -3.17543657       1.74141747
C        2.48735749      -3.98087036       2.52593633
C        3.45063349      -3.41492223       3.37181305
C        3.55539936      -2.01709978       3.42248159
C        2.73547594      -1.20655709       2.63126986
N        4.37536596      -4.19018864       4.10630181
C        4.71360057      -5.51429111       3.84947899
N        5.05790924      -6.04803975       2.71405859
C        5.28288481      -5.31330972       1.54072435
C        6.04035941      -4.13591160       1.50324243
C        6.25503483      -3.45857512       0.29976876
C        5.75135974      -3.98761067      -0.88526421
Br       6.04874298      -3.08236940      -2.51735548
C        5.04231760      -5.18582893      -0.87676230
C        4.81339715      -5.84319321       0.33523806
C        4.70867136      -6.44857239       5.04501282
C        3.65121804      -6.29620472       5.95961426
C        3.56301332      -7.11511726       7.08050641
C        4.51814582      -8.10594963       7.28878315
C        5.57855810      -8.29226158       6.38959647
C        6.51551446      -9.31440203       6.62698717
C        7.58589951      -9.52845276       5.76243277
C        7.74502344      -8.71001190       4.65540246
C        6.82648389      -7.68611174       4.41060200
C        5.70461020      -7.45507609       5.24874723
H        0.92585543      -3.64084219       1.08511293
H        2.38124623      -5.06160265       2.45768622
H        4.31335222      -1.54821538       4.04473501
H        2.85706935      -0.12705362       2.66193270
H        4.45018754      -3.87703467       5.06823662
H        6.45640936      -3.72972189       2.42004720
H        6.81565348      -2.52842254       0.30204029
H        4.66909996      -5.61970356      -1.79956828
H        4.27014276      -6.78493476       0.34612965
H        2.87165203      -5.55693215       5.79371306
H        2.74354194      -6.99536728       7.78400360
H        4.42436441      -8.74456305       8.16607309
H        6.41367000      -9.96312608       7.49441643
H        8.29359242     -10.32994695       5.95493307
H        8.57686295      -8.86314225       3.97356786
H        7.00157492      -7.06888693       3.53253623
C       -0.00445707       0.01189536      -1.78238275
H       -0.66409135       0.67374010      -2.43557963
H        0.65740317      -0.63156657      -2.45157240
C       -0.90989263      -0.90692880      -0.91072765
C        0.90977584       0.90977584      -0.90977584
C       -0.00465871       1.77757030       0.00794375
H       -0.66225468       2.44313916      -0.64384735
H        0.64322798       2.43503045       0.67728295
C       -1.78241447       0.00034974      -0.00472694
H       -2.45427497      -0.65498947       0.64260836
H       -2.43311707       0.67328779      -0.65473579
C       -0.91132561       0.90220522       0.91563759
C       -0.01476271      -0.02253852       1.78660255
H       -0.67934791      -0.69751639       2.42135241
H        0.63392994       0.61504881       2.47327442
C        0.01484550      -1.77751727      -0.01636693
H        0.67870853      -2.42144646      -0.68295456
H       -0.62264859      -2.45592969       0.64226336
C        1.78714474       0.01002794       0.00389507
H        2.44202412       0.67113390       0.66197326
H        2.45385902      -0.65136977      -0.64189061
C        0.91606151      -0.90478549       0.90901405
