169
Properties=species:S:1:pos:R:3 pbc="F F F"
C        0.00000000       0.00000000       0.00000000
C        0.88142438       0.88142438      -0.88142438
C        0.30121353       1.86188066      -1.68048774
C        1.11384366       2.68871209      -2.46189636
C        2.50719850       2.53949149      -2.46096671
C        3.06963734       1.53121662      -1.66441469
C        2.26310792       0.70901446      -0.87146844
N        3.37157624       3.41362636      -3.15694175
C        3.04837542       4.68720344      -3.61207974
N        2.48355699       5.65528094      -2.95145757
C        2.21975270       5.61286382      -1.57459027
C        3.15115436       5.17295721      -0.62568980
C        2.84367222       5.17762851       0.73763410
C        1.61389910       5.67260890       1.16251388
Br       1.19727607       5.69255362       3.00578487
C        0.69557150       6.16534624       0.23924557
C        1.00371371       6.13471485      -1.12368779
C        3.42557396       4.99858706      -5.04838349
C        3.20327761       3.98083940      -5.99320794
C        3.51258274       4.18199090      -7.33435127
C        4.02834140       5.40687131      -7.74795382
C        4.25065407       6.44684230      -6.83320771
C        4.75922934       7.67540211      -7.29256012
C        4.99986090       8.73069452      -6.41651755
C        4.75170546       8.56600911      -5.06301116
C        4.25331636       7.34908321      -4.59108599
C        3.96433955       6.26010864      -5.45427326
H       -0.77577538       2.00707119      -1.69080268
H        0.64344359       3.46333724      -3.06404219
H        4.14884821       1.41015753      -1.61758479
H        2.72322980      -0.04359484      -0.23670863
H        4.08066826       2.90801437      -3.67706412
H        4.12141405       4.80745612      -0.94759621
H        3.56931023       4.79808557       1.45099156
H       -0.25489932       6.57816303       0.56374054
H        0.29491193       6.52864265      -1.84794052
H        2.76208610       3.03202229      -5.69847677
H        3.33783947       3.39374483      -8.06161644
H        4.25256158       5.54838331      -8.80434359
H        4.96844661       7.82311060      -8.34994324
H        5.38197054       9.67651490      -6.79027491
H        4.93730690       9.37941147      -4.36714262
H        4.08287805       7.27048786      -3.51992009
C       -0.88142438      -0.88142438      -0.88142438
C       -1.21850789      -0.46074482      -2.16432922
C       -1.99902095      -1.28486009      -2.98057106
C       -2.45705860      -2.52763863      -2.52295946
C       -2.12325634      -2.92283464      -1.21917768
C       -1.33287601      -2.10841465      -0.40230016
N       -3.16352468      -3.43359167      -3.34502799
C       -3.19382307      -3.41867536      -4.73516016
N       -2.18907043      -3.34304167      -5.55818340
C       -0.84557990      -3.40185272      -5.15977418
C       -0.35312110      -4.34628527      -4.25039500
C        1.00195620      -4.37596762      -3.90965522
C        1.88301715      -3.48739895      -4.51961233
Br       3.71853501      -3.53085810      -4.07172173
C        1.42237822      -2.57703050      -5.46701988
C        0.06151017      -2.54013525      -5.78349126
C       -4.56516775      -3.53304501      -5.37433175
C       -5.60411711      -2.80076821      -4.77243964
C       -6.89206706      -2.84058981      -5.29626804
C       -7.15084514      -3.59590408      -6.43641730
C       -6.13461179      -4.32807502      -7.06801726
C       -6.43264918      -5.06738348      -8.22715892
C       -5.45426581      -5.81228711      -8.88052004
C       -4.16516674      -5.84294230      -8.37261668
C       -3.85594483      -5.11947810      -7.21806263
C       -4.81542955      -4.32256348      -6.54072842
H       -0.86649787       0.49295780      -2.54855840
H       -2.23472048      -0.94809251      -3.98801003
H       -2.43665696      -3.89431649      -0.84561709
H       -1.05884815      -2.44986705       0.59237160
H       -3.97636405      -3.81575931      -2.87362339
H       -1.03021257      -5.05802276      -3.78823105
H        1.35322696      -5.09459523      -3.17503596
H        2.10667671      -1.89860137      -5.96759851
H       -0.30166678      -1.83895848      -6.53086984
H       -5.41467492      -2.17128141      -3.90662884
H       -7.69178751      -2.27209293      -4.82932030
H       -8.16329950      -3.60416460      -6.83782439
H       -7.44002857      -5.06343597      -8.63803590
H       -5.69944038      -6.36812953      -9.78119046
H       -3.39201325      -6.42194756      -8.86990018
H       -2.83180196      -5.18349861      -6.85798543
C       -0.88142438       0.88142438       0.88142438
C       -0.52587632       2.20713972       1.11056589
C       -1.35215905       3.02055261       1.89174045
C       -2.53167637       2.51834745       2.45763288
C       -2.86027243       1.17362384       2.23137239
C       -2.04421136       0.35833361       1.44104585
N       -3.44440545       3.32766718       3.17007171
C       -3.51889565       4.71506792       3.11369502
N       -3.55942030       5.47348416       2.05739103
C       -3.67455426       4.98491959       0.74773295
C       -4.58580404       3.98877933       0.37521799
C       -4.67642456       3.55868317      -0.95144110
C       -3.88571691       4.16305568      -1.92477846
Br      -4.01260270       3.59387191      -3.72242979
C       -3.01284699       5.19288538      -1.58406022
C       -2.91309404       5.59963552      -0.25061321
C       -3.59032263       5.43458544       4.44763644
C       -2.75756799       4.94838049       5.47137647
C       -2.75231481       5.55213981       6.72447029
C       -3.56344504       6.65814903       6.96157246
C       -4.39664514       7.17543833       5.95862061
C       -5.19066390       8.30392413       6.23260354
C       -6.03564291       8.84458601       5.26684405
C       -6.11220270       8.25227336       4.01624967
C       -5.33495343       7.12664737       3.73188476
C       -4.43776477       6.56407130       4.67688538
H        0.37707910       2.62542200       0.67375558
H       -1.06834943       4.06010165       2.04237195
H       -3.78401169       0.76233915       2.63023970
H       -2.33588391      -0.67130323       1.25176292
H       -3.74405622       2.88798198       4.03370856
H       -5.22265076       3.52910284       1.12471278
H       -5.36556050       2.75975797      -1.20891423
H       -2.41213773       5.68829749      -2.34091204
H       -2.24144243       6.41097527       0.01907740
H       -2.08548702       4.11240086       5.29469729
H       -2.10625643       5.17455345       7.51239086
H       -3.53568522       7.12385016       7.94575311
H       -5.15167931       8.77947528       7.21034585
H       -6.63323465       9.72347406       5.49205165
H       -6.76908186       8.66116873       3.25361040
H       -5.43813247       6.69689212       2.73826142
C        0.88142438      -0.88142438       0.88142438
C        1.30573369      -0.41566832       2.12217992
C        2.08594836      -1.23789216       2.94061159
C        2.45699794      -2.52417563       2.52648313
C        2.03613597      -2.96572517       1.26340752
C        1.24556416      -2.15268624       0.44534042
N        3.15959261      -3.42385626       3.35869547
C        3.26334565      -3.34140470       4.74290824
N        2.30807633      -3.17241017       5.60980900
C        0.94430705      -3.18053955       5.28236020
C        0.35852993      -4.14196130       4.44931014
C       -1.01232691      -4.11756222       4.17843133
C       -1.81493995      -3.15483323       4.78410084
Br      -3.67127863      -3.12434847       4.43097497
C       -1.26060303      -2.22382846       5.65844672
C        0.11511752      -2.24254409       5.90445474
C        4.65888746      -3.49548399       5.31817307
C        5.70003781      -2.84946736       4.62781978
C        7.01007183      -2.93056498       5.08828811
C        7.29029801      -3.64073305       6.25213547
C        6.27336519      -4.28635558       6.97098331
C        6.59453895      -4.98167049       8.15098215
C        5.61586327      -5.64089175       8.89031796
C        4.30201071      -5.62923438       8.44948063
C        3.96913360      -4.94890844       7.27544352
C        4.93029230      -4.23801514       6.51041400
H        1.02221039       0.57309148       2.47297957
H        2.39053951      -0.86422488       3.91605864
H        2.28082481      -3.96966529       0.92610044
H        0.90318024      -2.52838393      -0.51522057
H        3.92661136      -3.87104147       2.86809392
H        0.97424273      -4.91028761       3.99193604
H       -1.43689972      -4.85246735       3.50083660
H       -1.88314964      -1.48643496       6.15623785
H        0.55136534      -1.52503287       6.59509689
H        5.49707159      -2.25478008       3.74073350
H        7.81153600      -2.42866006       4.55300468
H        8.32071585      -3.68201681       6.60255583
H        7.62099831      -5.01004122       8.51046091
H        5.87990556      -6.16331101       9.80554379
H        3.52810978      -6.14150211       9.01424909
H        2.92562587      -4.97704867       6.97061147
