178
Properties=species:S:1:pos:R:3 pbc="F F F"
O        4.97096350       6.59553225      -6.03173695
C        5.99626125       6.13341383      -5.52876392
N        6.01463309       5.10370805      -4.59997984
N        4.85107030       4.51893899      -4.19318645
C        4.89114138       3.53094517      -3.34116273
C        6.18930875       2.96894024      -2.78796561
C        3.60514626       2.98597504      -2.90983844
C        2.35348304       3.28801181      -3.42859202
C        1.29507048       2.58491513      -2.77892277
C        1.78174251       1.78174251      -1.78174251
S        3.46242707       1.86577129      -1.61657119
C        7.36210753       6.66489157      -5.96044806
C        8.56298297       6.10138052      -5.21490748
C        9.19645208       4.98239319      -5.78023445
C       10.22326876       4.33716124      -5.10691798
C       10.63301199       4.79650998      -3.85502892
C       10.03207400       5.92969142      -3.25036357
C       10.41721512       6.42656712      -1.98023862
C        9.81388816       7.54589460      -1.40868633
C        8.80290464       8.19981504      -2.08979136
C        8.39026128       7.72773871      -3.33594067
C        8.98421994       6.59729987      -3.94662454
H        6.88553287       4.83537337      -4.15950221
H        6.92387300       2.85233182      -3.59046048
H        6.07159334       1.98351902      -2.33569731
H        6.58471745       3.65987364      -2.03744168
H        2.20898851       3.98677495      -4.24665817
H        0.24713016       2.67610144      -3.03751673
H        7.35015575       7.75789337      -5.89444248
H        7.46579178       6.43863249      -7.02989684
H        8.87839318       4.59522231      -6.74767720
H       10.69367929       3.46865101      -5.56246742
H       11.20703653       5.94557877      -1.40738098
H       10.13937461       7.90315336      -0.43499295
H        8.33188038       9.07910612      -1.65721151
H        7.59060553       8.27976397      -3.82503292
C       11.68445001       4.04197102      -3.22356312
C       12.56502935       3.41004464      -2.69471051
Br      13.98885166       2.38827314      -1.83960057
O       -6.44361830      -6.23322123      -4.92139318
C       -6.18654437      -5.55479789      -5.91709673
N       -5.28596131      -4.50028512      -5.93207455
N       -4.60221364      -4.15913862      -4.80184348
C       -3.73649904      -3.18318798      -4.84356227
C       -3.42383175      -2.40960122      -6.11278164
C       -3.07833060      -2.83776108      -3.58486806
C       -3.14557869      -3.53696421      -2.38754397
C       -2.38833037      -2.92849936      -1.34207866
C       -1.78174251      -1.78174251      -1.78174251
S       -2.11018792      -1.43156182      -3.40301981
C       -6.84214441      -5.88930825      -7.25599451
C       -6.53767356      -4.93781063      -8.40378678
C       -5.45514297      -5.26835959      -9.23557716
C       -5.03829518      -4.39752521     -10.23152758
C       -5.69357990      -3.17923042     -10.41174058
C       -6.79911110      -2.80803913      -9.60497875
C       -7.49016255      -1.57976793      -9.75409037
C       -8.57782202      -1.23957142      -8.95107566
C       -9.00442653      -2.11736299      -7.97072152
C       -8.33690964      -3.32864126      -7.78838977
C       -7.23242459      -3.70694907      -8.58877068
H       -5.19135035      -3.92770916      -6.76134893
H       -3.31296867      -3.09642721      -6.95726941
H       -2.49207830      -1.84595863      -6.05277274
H       -4.24565784      -1.71741846      -6.31895647
H       -3.71671312      -4.45294060      -2.27276792
H       -2.30636814      -3.31925559      -0.33512461
H       -7.92364674      -5.97290582      -7.10593903
H       -6.50688234      -6.89870168      -7.52873709
H       -4.91688650      -6.20567556      -9.09873064
H       -4.19323415      -4.67309572     -10.85846786
H       -7.19110353      -0.85793290     -10.51095985
H       -9.08839077      -0.29120045      -9.09792970
H       -9.85729154      -1.86591376      -7.34499271
H       -8.71444904      -3.97879387      -7.00215951
C       -5.16755467      -2.33194075     -11.45048872
C       -4.72700855      -1.62233566     -12.32044029
Br      -4.01468273      -0.47496425     -13.72707839
O       -5.75540780       5.10214306       6.74068184
C       -5.52107747       6.09187329       6.04548823
N       -4.77794470       6.06549876       4.87487752
N       -4.26206395       4.89117954       4.40995225
C       -3.59110830       4.88174733       3.29039366
C       -3.37219541       6.12634328       2.44767592
C       -3.02332755       3.59931393       2.87831826
C       -3.25657970       2.35839094       3.45511622
C       -2.54151052       1.30184781       2.81555006
C       -1.78174251       1.78174251       1.78174251
S       -1.91070989       3.45541022       1.57864944
C       -6.10561590       7.44943451       6.43239675
C       -5.68249236       8.62838943       5.56838918
C       -6.51568282       8.95703962       4.48635728
C       -6.14385457       9.94116623       3.58232718
C       -4.93109710      10.61199716       3.74145664
C       -4.06336919      10.32348716       4.82527264
C       -2.82276845      10.97992308       5.02132933
C       -1.98889661      10.68157454       6.09799795
C       -2.36982357       9.71321704       7.00947043
C       -3.57841243       9.03814957       6.83737866
C       -4.45031848       9.31945607       5.75836980
H       -4.54717976       6.93053228       4.40269640
H       -4.30195536       6.69752442       2.36718552
H       -3.06100322       5.90335172       1.42645474
H       -2.60900161       6.74880377       2.92422739
H       -3.91964512       2.21947037       4.30330615
H       -2.59054415       0.26048933       3.10971485
H       -5.87344218       7.64439963       7.48464979
H       -7.19801710       7.34721918       6.38908482
H       -7.45751623       8.43146600       4.33231046
H       -6.80301381      10.17304186       2.74874206
H       -2.48103175      11.74800132       4.33096322
H       -1.04686327      11.20993636       6.22072130
H       -1.73124246       9.47919791       7.85775764
H       -3.82618688       8.28600045       7.58321509
C       -4.62096046      11.59404486       2.73497883
C       -4.36122103      12.41650981       1.89205367
Br      -3.94124433      13.74636607       0.52911497
O        6.28412683      -4.91589554       6.39821034
C        5.56449069      -5.89565465       6.19829364
N        4.47968190      -5.90428225       5.33435682
N        4.15300266      -4.78635926       4.62383382
C        3.14697638      -4.82324154       3.79303137
C        2.32126847      -6.07477650       3.55016963
C        2.82117799      -3.57600406       3.10377769
C        3.56174486      -2.40188914       3.10645287
C        2.96270205      -1.36187714       2.33432920
C        1.78174251      -1.78174251       1.78174251
S        1.38931106      -3.37817133       2.17728717
C        5.87662722      -7.22271332       6.88810663
C        4.87753624      -8.34656217       6.65517257
C        5.14274968      -9.22480902       5.59152102
C        4.22541397     -10.20350772       5.23842628
C        3.02508047     -10.31975792       5.93971250
C        2.71923023      -9.46434605       7.02855271
C        1.51119837      -9.54799663       7.76482586
C        1.23556729      -8.69798956       8.83491225
C        2.15966904      -7.73478405       9.19805795
C        3.35264343      -7.61658307       8.48471417
C        3.66585044      -8.46583156       7.39646236
H        3.87690462      -6.71604024       5.28746359
H        2.97538237      -6.94563287       3.44565005
H        1.72818930      -6.02644163       2.63617874
H        1.65131340      -6.22952992       4.40118945
H        4.50015479      -2.29977300       3.64249384
H        3.38370245      -0.37226011       2.20478577
H        6.00235959      -7.03971263       7.96041937
H        6.86424177      -7.54105520       6.52902414
H        6.06501266      -9.13830633       5.01797371
H        4.45070621     -10.86734287       4.40674865
H        0.75470389     -10.28909840       7.51619399
H        0.30097562      -8.79502920       9.38151611
H        1.95869878      -7.07272974      10.03676948
H        4.04121702      -6.84107410       8.81311129
C        2.12607903     -11.34564964       5.47825548
C        1.37316532     -12.20483396       5.09178523
Br       0.15576753     -13.59406233       4.46689551
C       -0.00445707       0.01189536      -1.78238275
H       -0.66409135       0.67374010      -2.43557963
H        0.65740317      -0.63156657      -2.45157240
C       -0.90989263      -0.90692880      -0.91072765
C        0.90977584       0.90977584      -0.90977584
C       -0.00465871       1.77757030       0.00794375
H       -0.66225468       2.44313916      -0.64384735
H        0.64322798       2.43503045       0.67728295
C       -1.78241447       0.00034974      -0.00472694
H       -2.45427497      -0.65498947       0.64260836
H       -2.43311707       0.67328779      -0.65473579
C       -0.91132561       0.90220522       0.91563759
C       -0.01476271      -0.02253852       1.78660255
H       -0.67934791      -0.69751639       2.42135241
H        0.63392994       0.61504881       2.47327442
C        0.01484550      -1.77751727      -0.01636693
H        0.67870853      -2.42144646      -0.68295456
H       -0.62264859      -2.45592969       0.64226336
C        1.78714474       0.01002794       0.00389507
H        2.44202412       0.67113390       0.66197326
H        2.45385902      -0.65136977      -0.64189061
C        0.91606151      -0.90478549       0.90901405
