170
Properties=species:S:1:pos:R:3 pbc="F F F"
O        4.97096350       6.59553225      -6.03173695
C        5.99626125       6.13341383      -5.52876392
N        6.01463309       5.10370805      -4.59997984
N        4.85107030       4.51893899      -4.19318645
C        4.89114138       3.53094517      -3.34116273
C        6.18930875       2.96894024      -2.78796561
C        3.60514626       2.98597504      -2.90983844
C        2.35348304       3.28801181      -3.42859202
C        1.29507048       2.58491513      -2.77892277
C        1.78174251       1.78174251      -1.78174251
S        3.46242707       1.86577129      -1.61657119
C        7.36210753       6.66489157      -5.96044806
C        8.56298297       6.10138052      -5.21490748
C        9.19645208       4.98239319      -5.78023445
C       10.22326876       4.33716124      -5.10691798
C       10.63301199       4.79650998      -3.85502892
Br      12.02585562       3.79696958      -3.01852396
C       10.03207400       5.92969142      -3.25036357
C       10.41721512       6.42656712      -1.98023862
C        9.81388816       7.54589460      -1.40868633
C        8.80290464       8.19981504      -2.08979136
C        8.39026128       7.72773871      -3.33594067
C        8.98421994       6.59729987      -3.94662454
H        6.88553287       4.83537337      -4.15950221
H        6.92387300       2.85233182      -3.59046048
H        6.07159334       1.98351902      -2.33569731
H        6.58471745       3.65987364      -2.03744168
H        2.20898851       3.98677495      -4.24665817
H        0.24713016       2.67610144      -3.03751673
H        7.35015575       7.75789337      -5.89444248
H        7.46579178       6.43863249      -7.02989684
H        8.87839318       4.59522231      -6.74767720
H       10.69367929       3.46865101      -5.56246742
H       11.20703653       5.94557877      -1.40738098
H       10.13937461       7.90315336      -0.43499295
H        8.33188038       9.07910612      -1.65721151
H        7.59060553       8.27976397      -3.82503292
O       -6.30678012      -6.37697463      -4.91447796
C       -6.21767178      -5.58598679      -5.85478042
N       -5.42550431      -4.44772132      -5.84509535
N       -4.66397871      -4.14483321      -4.75438382
C       -3.90177657      -3.08546445      -4.77600826
C       -3.79457870      -2.16905502      -5.98258088
C       -3.15278052      -2.79292591      -3.55525331
C       -3.03124336      -3.60375708      -2.43508643
C       -2.23052547      -3.02068823      -1.40769469
C       -1.78174251      -1.78174251      -1.78174251
S       -2.30622232      -1.31775364      -3.32079360
C       -6.97338244      -5.85998326      -7.15408146
C       -6.87838748      -4.77952897      -8.22135452
C       -5.86101641      -4.91820140      -9.17986191
C       -5.63161678      -3.92021969     -10.11551150
C       -6.41251467      -2.76425441     -10.10778181
Br      -5.96831982      -1.45297253     -11.42005681
C       -7.45901996      -2.58536569      -9.16774333
C       -8.27307185      -1.42609141      -9.12485760
C       -9.29937748      -1.27571263      -8.19337899
C       -9.53939455      -2.28013491      -7.27298158
C       -8.74681818      -3.42809170      -7.27903078
C       -7.70003067      -3.61472978      -8.21338390
H       -5.47033242      -3.79374802      -6.61632801
H       -3.70762333      -2.75923067      -6.89981129
H       -2.91813564      -1.52069589      -5.95197813
H       -4.69409535      -1.54881624      -6.03912118
H       -3.49978731      -4.58026114      -2.36237319
H       -2.00949892      -3.49299550      -0.45825391
H       -8.02123389      -6.06788055      -6.91337716
H       -6.57541102      -6.79978068      -7.55912941
H       -5.22663206      -5.80389081      -9.19076983
H       -4.83348900      -4.04791933     -10.84338940
H       -8.12188272      -0.61003250      -9.82808106
H       -9.90839921      -0.37529808      -8.19382364
H      -10.34312969      -2.17701269      -6.54805563
H       -8.97938609      -4.18395897      -6.53205737
O       -6.80373300       5.54212875       5.25237095
C       -5.96595336       5.53686040       6.15562523
N       -4.71463136       4.94726383       6.05642579
N       -4.32988015       4.33241780       4.90089779
C       -3.13678406       3.80982381       4.81664141
C       -2.12487222       3.87374397       5.94759842
C       -2.80995605       3.12226649       3.56873720
C       -3.56220656       3.10569220       2.40218812
C       -2.96335365       2.33325564       1.36229909
C       -1.78174251       1.78174251       1.78174251
S       -1.39431051       2.16905028       3.38140876
C       -6.26116716       6.25455457       7.47172544
C       -5.20767589       6.11124817       8.56034692
C       -4.22156143       7.10923260       8.62828570
C       -3.15996397       6.99381753       9.51356647
C       -3.06296162       5.87730109      10.34428818
Br      -1.53518513       5.82101402      11.48515000
C       -4.04102427       4.85081964      10.32028507
C       -3.97815041       3.70037794      11.14549251
C       -4.95516928       2.70665022      11.10664960
C       -6.02341702       2.83230696      10.23678707
C       -6.10762059       3.94572799       9.40059208
C       -5.13575539       4.97470788       9.41768107
H       -4.11178495       4.90048449       6.86813901
H       -2.10635907       4.87741682       6.38288941
H       -1.10531925       3.66239361       5.62309681
H       -2.40893383       3.15296543       6.72013350
H       -4.50587807       3.63306439       2.30347917
H       -3.38745251       2.19860732       0.37468850
H       -7.23816340       5.92436025       7.83996795
H       -6.38498709       7.31862427       7.23070974
H       -4.26753218       7.97942804       7.97433248
H       -2.40532919       7.77662702       9.54284151
H       -3.15728491       3.55780110      11.84491026
H       -4.87805631       1.84050772      11.75895690
H       -6.79565527       2.06760049      10.20494224
H       -6.96778883       3.99141290       8.73620068
O        6.23888050      -4.92062956       6.43872265
C        5.55580787      -5.91474423       6.18788689
N        4.49789515      -5.92913525       5.29129058
N        4.15840297      -4.80018817       4.60460460
C        3.17908197      -4.84148324       3.74268408
C        2.39962354      -6.10896159       3.43762947
C        2.83588220      -3.58396379       3.08111375
C        3.53977553      -2.38901423       3.14129712
C        2.93237959      -1.34410783       2.38242097
C        1.78174251      -1.78174251       1.78174251
S        1.42676726      -3.40047082       2.11753147
C        5.88778365      -7.25243497       6.84722855
C        4.93089861      -8.39779390       6.55057846
C        5.25431466      -9.23482812       5.46993694
C        4.37823683     -10.22906572       5.06004542
C        3.16173330     -10.40229740       5.72052019
Br       2.03162918     -11.77671468       5.03300529
C        2.79766827      -9.59005434       6.82440638
C        1.57143743      -9.73201496       7.52056847
C        1.23828617      -8.92370096       8.60648197
C        2.12129953      -7.94504912       9.02616239
C        3.33074889      -7.76971800       8.35347378
C        3.70195796      -8.57560289       7.25058350
H        3.92189280      -6.75661416       5.20190149
H        3.08288855      -6.95641127       3.32736548
H        1.83273659      -6.05031355       2.50775953
H        1.70974944      -6.30949814       4.26278519
H        4.45829587      -2.27553385       3.70859191
H        3.32656639      -0.33892970       2.29525224
H        5.97597134      -7.09867467       7.92784559
H        6.89489919      -7.53018430       6.50923762
H        6.19011861      -9.10347949       4.92769460
H        4.64832208     -10.86016523       4.21631042
H        0.84568459     -10.48729297       7.22701872
H        0.29128693      -9.06511863       9.12111537
H        1.87535983      -7.31522203       9.87761614
H        3.98522211      -6.98452064       8.72565968
C       -0.00445707       0.01189536      -1.78238275
H       -0.66409135       0.67374010      -2.43557963
H        0.65740317      -0.63156657      -2.45157240
C       -0.90989263      -0.90692880      -0.91072765
C        0.90977584       0.90977584      -0.90977584
C       -0.00465871       1.77757030       0.00794375
H       -0.66225468       2.44313916      -0.64384735
H        0.64322798       2.43503045       0.67728295
C       -1.78241447       0.00034974      -0.00472694
H       -2.45427497      -0.65498947       0.64260836
H       -2.43311707       0.67328779      -0.65473579
C       -0.91132561       0.90220522       0.91563759
C       -0.01476271      -0.02253852       1.78660255
H       -0.67934791      -0.69751639       2.42135241
H        0.63392994       0.61504881       2.47327442
C        0.01484550      -1.77751727      -0.01636693
H        0.67870853      -2.42144646      -0.68295456
H       -0.62264859      -2.45592969       0.64226336
C        1.78714474       0.01002794       0.00389507
H        2.44202412       0.67113390       0.66197326
H        2.45385902      -0.65136977      -0.64189061
C        0.91606151      -0.90478549       0.90901405
