165
Properties=species:S:1:pos:R:3 pbc="F F F"
C        0.00000000       0.00000000       0.00000000
C        4.78705853       6.77112737     -11.59535465
C        4.76391523       6.66334465     -10.08136881
O        6.07778758       6.94983256      -9.60073337
C        6.27357945       6.89399866      -8.24379136
C        5.31028990       6.56399791      -7.28939371
C        5.64937483       6.53690339      -5.92837490
C        4.63816033       6.18722982      -4.93380125
C        4.36224556       4.95345528      -4.49291772
C        4.90629202       3.61994149      -4.79022462
N        4.29535992       2.68015747      -4.11940705
N        3.32722651       3.31217903      -3.33941579
C        2.50228453       2.51208591      -2.50884355
C        1.50218538       3.06874793      -1.70036016
C        0.69471235       2.25997333      -0.89051882
C        0.88126821       0.88126821      -0.88126821
C        1.86806143       0.30420254      -1.67284642
C        2.67201473       1.11669881      -2.48022850
C        3.29126576       4.70563206      -3.49466571
O        2.59206146       5.56718962      -2.99283954
C        6.01666855       3.33906926      -5.74603534
C        6.95006997       6.85293652      -5.52091140
C        7.91571031       7.18263534      -6.47245763
Br       9.66863123       7.59274918      -5.88117912
C        7.57642754       7.20083880      -7.82498936
O        8.51482346       7.52185896      -8.77281172
H        3.79938327       6.56340430     -12.01619248
H        5.50810775       6.06500245     -12.02031959
H        5.10104615       7.77297858     -11.90618317
H        4.46934854       5.64566057      -9.80040467
H        4.04710801       7.38891534      -9.67981807
H        4.29082222       6.32559314      -7.57706265
H        4.07338324       7.03509207      -4.54588894
H        1.32149368       4.13992763      -1.67611071
H       -0.07358381       2.72073396      -0.27476464
H        2.02366577      -0.77137133      -1.67367435
H        3.43683491       0.64157387      -3.09053955
H        6.26644252       2.27412737      -5.72184904
H        6.90796249       3.90462674      -5.46705916
H        5.70798902       3.59825407      -6.76138498
H        7.21089851       6.84150000      -4.46470365
H        8.04789939       7.48138317      -9.62992503
C      -10.33516965      -9.07801449      -3.74035642
C       -9.35120265      -7.99998243      -4.15744361
O       -8.83636103      -8.34908797      -5.44290451
C       -7.91271312      -7.50006851      -5.99858784
C       -7.41473750      -6.33454433      -5.41439970
C       -6.46228280      -5.55953480      -6.09283553
C       -5.94157596      -4.34240348      -5.47521196
C       -4.87046194      -4.26232510      -4.67583153
C       -3.90201372      -5.24589504      -4.16854937
N       -3.01611458      -4.69983805      -3.37897181
N       -3.32365090      -3.34103816      -3.31413229
C       -2.51335988      -2.50381834      -2.50603577
C       -2.75950953      -1.12987544      -2.38190849
C       -1.94966250      -0.32111125      -1.57443074
C       -0.88126821      -0.88126821      -0.88126821
C       -0.61448640      -2.24163005      -0.98899394
C       -1.42671277      -3.04525840      -1.79697088
C       -4.44120373      -2.97290524      -4.07745456
O       -4.99463003      -1.90272396      -4.25473663
C       -3.90870148      -6.70248161      -4.49059007
C       -6.01738289      -5.94409879      -7.36243621
C       -6.51264443      -7.10906962      -7.94908922
Br      -5.87616218      -7.60193317      -9.66446419
C       -7.45358702      -7.88072569      -7.26794299
O       -7.94927699      -9.02941668      -7.83080046
H      -10.76364995      -8.85630114      -2.75902896
H       -9.84106688     -10.05432940      -3.69803352
H      -11.14683842      -9.16303051      -4.47033896
H       -8.53965041      -7.95358975      -3.42217362
H       -9.87215537      -7.03682384      -4.20686222
H       -7.75107671      -6.00704405      -4.43535725
H       -6.50947521      -3.44056281      -5.70432622
H       -3.58241051      -0.65026667      -2.90485485
H       -2.16603621       0.74141641      -1.49729501
H        0.21746781      -2.69054216      -0.45289444
H       -1.19776834      -4.10646950      -1.86471049
H       -3.03834684      -7.18653039      -4.03754169
H       -3.85745129      -6.85116525      -5.57103185
H       -4.81117576      -7.16829537      -4.08815695
H       -5.28596620      -5.33810170      -7.89303426
H       -8.59080295      -9.38359381      -7.18481082
C       -7.63095747       4.26061018      11.26197291
C       -6.87617545       4.63360528       9.99884797
O       -7.59748936       5.68124662       9.34961753
C       -7.08215730       6.15837552       8.17083665
C       -5.92624867       5.70076477       7.53666809
C       -5.51494270       6.27509092       6.32461950
C       -4.30625415       5.78982570       5.66311155
C       -4.24464205       4.79623079       4.76774573
C       -5.24771523       3.90965465       4.15908825
N       -4.70870579       3.05334022       3.33287844
N       -3.33810810       3.31135092       3.32936232
C       -2.50256820       2.50811194       2.51253385
C       -1.11527914       2.69823612       2.45777820
C       -0.30700716       1.89045536       1.64774198
C       -0.88126821       0.88126821       0.88126821
C       -2.25563086       0.67326000       0.91621953
C       -3.05866806       1.48300481       1.72726917
C       -2.95439415       4.36349656       4.17367282
O       -1.86968431       4.85593381       4.42647250
C       -6.71259564       3.95115886       4.43801866
C       -6.25368246       7.31697538       5.75326006
C       -7.41012270       7.77642658       6.38425400
Br      -8.38919603       9.18099055       5.57237295
C       -7.81972251       7.19750349       7.58502971
O       -8.95509741       7.63729425       8.21710247
H       -7.11661455       3.46066911      11.80169639
H       -8.64574198       3.92799782      11.01969000
H       -7.72921005       5.12784431      11.92315353
H       -6.81362789       3.75423694       9.34754895
H       -5.87064777       4.97669802      10.26849564
H       -5.32822490       4.90148108       7.96377203
H       -3.39165182       6.30415316       5.95855926
H       -0.62442515       3.47393112       3.03917576
H        0.76633220       2.06144292       1.62680408
H       -2.71580276      -0.11142704       0.32159307
H       -4.13092079       1.30041173       1.73761580
H       -7.23234560       3.23067320       3.79940012
H       -7.11029138       4.94522953       4.22412748
H       -6.90031643       3.68623461       5.48107703
H       -5.92964732       7.76919874       4.81825610
H       -9.02860002       7.10058460       9.03002296
C        7.60794507     -11.27299396       4.27260153
C        7.31183789      -9.79020143       4.40658937
O        7.38508945      -9.45133965       5.79192441
C        7.13548814      -8.14529556       6.13058577
C        6.79741643      -7.11945028       5.24681482
C        6.55948149      -5.82437121       5.73080043
C        6.20231170      -4.75505569       4.80182400
C        4.96147956      -4.42443943       4.42269958
C        3.62387437      -4.93677466       4.75580910
N        2.68125431      -4.30386119       4.10980894
N        3.31394748      -3.34093327       3.32394058
C        2.51277745      -2.50764446       2.50279209
C        3.07118324      -1.52106076       1.67904946
C        2.26212643      -0.71140041       0.87167765
C        0.88126821      -0.88126821       0.88126821
C        0.30210427      -1.85179833       1.69120779
C        1.11491237      -2.65816852       2.49586115
C        4.71094311      -3.33243012       3.44819030
O        5.57491897      -2.65196939       2.92520227
C        3.34356426      -6.05150801       5.70670088
C        6.67263645      -5.55261550       7.09866595
C        7.00978334      -6.57598368       7.98503626
Br       7.14135290      -6.16998733       9.83121930
C        7.23789958      -7.86367510       7.50068101
O        7.56908859      -8.88088687       8.35951868
H        7.56797591     -11.58553137       3.22547278
H        6.88491079     -11.86298353       4.84553548
H        8.59940013     -11.50640395       4.67440382
H        6.30639003      -9.59047422       4.01854952
H        8.05653470      -9.22163531       3.83767141
H        6.71385984      -7.30016669       4.17945148
H        7.05213625      -4.20548784       4.39674016
H        4.14406452      -1.35355754       1.63990996
H        2.72442423       0.04498158       0.24247214
H       -0.77526005      -1.99352545       1.70770339
H        0.63815834      -3.41036217       3.12042781
H        2.26289199      -6.17936029       5.82016664
H        3.76505977      -5.82621870       6.68836992
H        3.76284279      -6.98366924       5.32111604
H        6.49770034      -4.54620535       7.47319647
H        7.69076230      -9.67073736       7.79770792
