162
Properties=species:S:1:pos:R:3 pbc="F F F"
C        1.79206311       1.79206311      -1.79206311
C        1.22751383       2.51422746      -2.83613101
C        2.03596220       3.33206709      -3.63624271
C        3.41661320       3.45429437      -3.40881018
C        3.94953886       2.69843311      -2.35011457
C        3.15520304       1.87476603      -1.54640782
N        4.28025522       4.24068456      -4.09409247
C        3.82062459       4.98747620      -5.24437642
S        4.99356152       6.35027252      -5.56817154
C        5.75384105       5.48976112      -6.86836833
C        6.90215844       5.91214450      -7.41691225
C        7.66189370       5.20661249      -8.45323232
C        8.58158596       4.23320109      -8.03222108
C        9.35026561       3.54895922      -8.96997154
O       10.25070633       2.59873079      -8.58561220
C        9.22287310       3.81461873     -10.32690477
C        8.30441189       4.77257166     -10.75779361
C        7.52554864       5.46840710      -9.82520489
C        4.97849065       4.26075728      -7.21317716
O        5.25574243       3.46567646      -8.10157528
N        3.87234673       4.15580555      -6.40903981
H        3.43043972       3.25381727      -6.34804038
H        0.16386997       2.46125515      -3.04085182
H        1.55165485       3.88142399      -4.43840113
H        5.01739600       2.76217003      -2.14513878
H        3.61746062       1.31840402      -0.73887837
H        2.82642830       5.43474041      -5.16729052
H        7.36483186       6.82792323      -7.06079682
H        8.68081864       4.01712227      -6.97142286
H       10.09829277       2.41306391      -7.64283491
H        9.82548435       3.26902007     -11.04647911
H        8.19796628       4.96678261     -11.82134570
C        6.60663115       6.45676492     -10.32753891
C        5.83703775       7.28451459     -10.74824366
Br       4.59267032       8.62291580     -11.42848765
C       -1.79206311      -1.79206311      -1.79206311
C       -3.12863870      -1.98421525      -1.46501835
C       -3.93900972      -2.78346539      -2.28179689
C       -3.43959627      -3.39851120      -3.44161028
C       -2.07999531      -3.18787837      -3.73021285
C       -1.25857432      -2.39630880      -2.92149377
N       -4.14041025      -4.15675860      -4.31786340
C       -5.52380572      -4.48116151      -4.04750998
S       -6.33041916      -4.96911037      -5.61247604
C       -6.22374043      -6.65780106      -5.23042902
C       -6.48271708      -7.60486871      -6.14362940
C       -6.33275345      -9.04883524      -5.94014982
C       -5.06620497      -9.60750343      -6.17329973
C       -4.87022998     -10.97752665      -6.02143974
O       -3.64882559     -11.54399033      -6.24223341
C       -5.91471619     -11.80932765      -5.64035276
C       -7.17540631     -11.26371389      -5.39565694
C       -7.38630091      -9.88760339      -5.54525633
C       -5.78264340      -6.85282713      -3.81695456
O       -5.63748298      -7.93051299      -3.25499821
N       -5.59039088      -5.63916461      -3.20763660
H       -5.03791471      -5.62771249      -2.36667017
H       -3.56115282      -1.51849059      -0.58633353
H       -4.97849544      -2.90279474      -1.99018979
H       -1.65383788      -3.65238757      -4.61847935
H       -0.21799947      -2.26221573      -3.19452782
H       -6.13251280      -3.68579632      -3.61015012
H       -6.79015447      -7.31831631      -7.14508112
H       -4.24362698      -8.95977910      -6.46595769
H       -3.00149122     -10.82299270      -6.32970767
H       -5.74507117     -12.87495885      -5.52095352
H       -7.98595977     -11.91634823      -5.08378658
C       -8.71196891      -9.38411303      -5.29485304
C       -9.82221586      -8.96243985      -5.08514029
Br     -11.61739128      -8.28062999      -4.74605250
C       -1.79206311       1.79206311       1.79206311
C       -1.21756301       2.57326333       2.78704596
C       -2.02667005       3.39077486       3.58682708
C       -3.41832187       3.45394744       3.40744844
C       -3.96050091       2.63969565       2.39788997
C       -3.16539761       1.81571477       1.59526450
N       -4.28554011       4.23370167       4.09579047
C       -3.81287617       5.03968894       5.19991210
S       -5.02391930       6.37012365       5.51796262
C       -5.70326275       5.53225734       6.87645041
C       -6.84598396       5.93296862       7.45226261
C       -7.54025393       5.23991259       8.54157199
C       -8.43721540       4.21842927       8.19136346
C       -9.14481254       3.54258204       9.18180179
O      -10.02209038       2.54633649       8.86662245
C       -8.97821358       3.86381108      10.52237194
C       -8.08153731       4.87018580      10.88305404
C       -7.36402087       5.55817667       9.89696309
C       -4.86996254       4.34622402       7.23623854
O       -5.08441698       3.57572471       8.16285248
N       -3.79066611       4.25130848       6.39521751
H       -3.31749268       3.36435388       6.35045081
H       -0.14592651       2.56684505       2.95320537
H       -1.53457993       3.98733836       4.34956167
H       -5.03676110       2.65670060       2.23124311
H       -3.63539919       1.21275592       0.82658791
H       -2.83976625       5.51963485       5.06905814
H       -7.35560941       6.81717020       7.08077230
H       -8.56678126       3.95893294       7.14364957
H       -9.89720784       2.33083760       7.92614614
H       -9.53315919       3.32421711      11.28360724
H       -7.94384150       5.10821124      11.93404185
C       -6.46543603       6.59763179      10.32786716
C       -5.71287122       7.46817546      10.68874932
Br      -4.49603758       8.87577095      11.27226524
C        1.79206311      -1.79206311       1.79206311
C        3.13623891      -1.95888638       1.48274701
C        3.94634174      -2.75823769       2.29969257
C        3.43893364      -3.39855177       3.44223234
C        2.07203599      -3.21300956       3.71304098
C        1.25088182      -2.42162845       2.90386662
N        4.13797294      -4.15948500       4.31757431
C        5.53013345      -4.45869100       4.06365277
S        6.32035321      -4.95838184       5.63327052
C        6.24546972      -6.64241719       5.22408359
C        6.50512000      -7.59938999       6.12670520
C        6.38049077      -9.04216147       5.89908627
C        5.11930028      -9.62347776       6.10423009
C        4.94675060     -10.99381455       5.92863122
O        3.73100083     -11.58205036       6.12199813
C        6.00956536     -11.80373189       5.55109935
C        7.26527466     -11.23537813       5.33412436
C        7.45268106      -9.85869462       5.50778494
C        5.82889364      -6.82233436       3.80119709
O        5.70886284      -7.89332242       3.22080890
N        5.62724569      -5.60249323       3.20745318
H        5.08746479      -5.58647636       2.35835622
H        3.57480090      -1.47319764       0.61797840
H        4.99183956      -2.85730200       2.02233842
H        1.63966532      -3.69753422       4.58750527
H        0.20434940      -2.30753461       3.16285900
H        6.13308849      -3.64755888       3.64781186
H        6.79290256      -7.32365390       7.13699545
H        4.28251403      -8.99287118       6.39397855
H        3.07139902     -10.87237535       6.21041722
H        5.85816441     -12.86984811       5.41297101
H        8.09040584     -11.87078017       5.02490858
C        8.77408767      -9.33138205       5.28546527
C        9.88076570      -8.88975776       5.09927254
Br      11.67017047      -8.17568865       4.79821465
C       -0.00445707       0.01189536      -1.78238275
H       -0.66409135       0.67374010      -2.43557963
H        0.65740317      -0.63156657      -2.45157240
C       -0.90989263      -0.90692880      -0.91072765
C        0.90977584       0.90977584      -0.90977584
C       -0.00465871       1.77757030       0.00794375
H       -0.66225468       2.44313916      -0.64384735
H        0.64322798       2.43503045       0.67728295
C       -1.78241447       0.00034974      -0.00472694
H       -2.45427497      -0.65498947       0.64260836
H       -2.43311707       0.67328779      -0.65473579
C       -0.91132561       0.90220522       0.91563759
C       -0.01476271      -0.02253852       1.78660255
H       -0.67934791      -0.69751639       2.42135241
H        0.63392994       0.61504881       2.47327442
C        0.01484550      -1.77751727      -0.01636693
H        0.67870853      -2.42144646      -0.68295456
H       -0.62264859      -2.45592969       0.64226336
C        1.78714474       0.01002794       0.00389507
H        2.44202412       0.67113390       0.66197326
H        2.45385902      -0.65136977      -0.64189061
C        0.91606151      -0.90478549       0.90901405
