177
Properties=species:S:1:pos:R:3 pbc="F F F"
C        0.00000000       0.00000000       0.00000000
C        4.58748052      -2.43880392      -9.36062608
C        3.26421857      -2.70280260      -8.66196935
C        2.51386630      -1.40279784      -8.37080187
C        1.16916353      -1.68903978      -7.70100422
C        0.40677561      -0.41634700      -7.33430657
O        1.17462355       0.48275228      -6.51733014
C        1.34754961       0.11412128      -5.22160490
O        0.96790546      -0.93422730      -4.72996503
C        2.03656011       1.20733847      -4.47622901
C        2.89537668       2.05613466      -5.18718819
C        3.52853920       3.09167180      -4.52201232
N        3.32422127       3.30160173      -3.20082425
C        2.51938986       2.48566759      -2.50604144
C        2.36093458       2.74681410      -1.15047860
C        1.55320508       1.95849216      -0.32999452
C        0.88098599       0.88098599      -0.88098599
C        1.01036881       0.60218552      -2.23981906
C        1.83620620       1.39565445      -3.08322586
C        4.44818395       4.03939960      -5.18811166
C        5.25822203       3.65891031      -6.27561149
C        6.11965211       4.57044481      -6.89844200
C        6.18907702       5.88165755      -6.43906028
Br       7.35190466       7.11191830      -7.27855375
C        5.41002421       6.28817803      -5.36163408
C        4.55146650       5.37222741      -4.74333378
H        5.12709394      -3.37818109      -9.51627272
H        5.22239527      -1.77648065      -8.76361814
H        4.42637823      -1.97308542     -10.33795311
H        3.45454970      -3.23701215      -7.72345575
H        2.64942719      -3.35897136      -9.28893311
H        2.34862077      -0.85009309      -9.30322629
H        3.13111780      -0.76924870      -7.72290978
H        1.34512009      -2.28993078      -6.80215044
H        0.54394757      -2.29425768      -8.36813406
H       -0.53885001      -0.65599842      -6.83340600
H        0.15066961       0.13334093      -8.24680373
H        3.05265587       1.91517294      -6.25185719
H        2.88809225       3.59440041      -0.71589156
H        1.46189636       2.19607589       0.72624715
H        0.46247524      -0.24913593      -2.63675486
H        5.24685649       2.63602122      -6.64565994
H        6.73332184       4.24276487      -7.73367576
H        5.46043226       7.30827695      -4.99061634
H        3.95027588       5.70840441      -3.89884957
C       -7.06665124       3.01355380      -7.45620523
C       -5.69032270       3.44734152      -6.98040413
C       -4.65836428       2.33294014      -7.15644619
C       -3.27274815       2.79852867      -6.70690849
C       -2.21652039       1.69859600      -6.80681078
O       -2.58123439       0.50342703      -6.09689861
C       -2.50709647       0.56599227      -4.74217159
O       -2.22830468       1.56101227      -4.09635078
C       -2.77679053      -0.78154825      -4.16178881
C       -3.60224411      -1.65903073      -4.87742469
C       -3.84889693      -2.92302436      -4.37030203
N       -3.29909742      -3.32622384      -3.20132599
C       -2.52263864      -2.48982598      -2.49863428
C       -1.99853800      -2.95929334      -1.30039594
C       -1.18406315      -2.17247700      -0.48515161
C       -0.88098599      -0.88098599      -0.88098599
C       -1.38155188      -0.38714875      -2.08367277
C       -2.21775589      -1.17881303      -2.91851759
C       -4.70269535      -3.91777971      -5.05522015
C       -5.80604964      -3.54126272      -5.84543147
C       -6.60099794      -4.49592092      -6.49162006
C       -6.30736364      -5.84866128      -6.35376994
Br      -7.38018834      -7.13738260      -7.22480576
C       -5.23095080      -6.25543565      -5.57344988
C       -4.44066083      -5.29639343      -4.92997343
H       -7.79681386       3.80898737      -7.27735906
H       -7.40243498       2.11752182      -6.92461959
H       -7.05756513       2.79497873      -8.52865951
H       -5.74956667       3.73156530      -5.92299194
H       -5.37967296       4.33842708      -7.53814306
H       -4.61802576       2.02395880      -8.20768701
H       -4.97067887       1.45881353      -6.57291353
H       -3.34048743       3.15724211      -5.67409443
H       -2.95203451       3.65124838      -7.31703782
H       -1.24231219       2.05683351      -6.45307888
H       -2.08548580       1.41036244      -7.85569090
H       -4.03289763      -1.35921797      -5.82757040
H       -2.23512093      -3.97503967      -0.98822362
H       -0.79980440      -2.57842443       0.44650373
H       -1.11695420       0.62991832      -2.36305828
H       -6.07865114      -2.49395853      -5.95592799
H       -7.44711164      -4.17096692      -7.09168391
H       -4.99582670      -7.30958240      -5.45391645
H       -3.60260185      -5.63418026      -4.32074776
C        1.35116719      10.30918888       2.55128098
C        1.53114778       9.42791916       1.32661393
C        0.20684829       8.80537364       0.88334498
C        0.39976877       7.95160518      -0.37070844
C       -0.88595492       7.25776866      -0.81898840
O       -1.48880544       6.46714679       0.21875375
C       -0.86518434       5.29865169       0.51943976
O        0.18412091       4.91397482       0.03378927
C       -1.68186339       4.53288368       1.50538052
C       -2.50367694       5.24975324       2.38526934
C       -3.28782916       4.56046023       3.29393393
N       -3.27950300       3.20796697       3.33917728
C       -2.48419869       2.51166243       2.51523778
C       -2.51212850       1.12632884       2.61976995
C       -1.72088160       0.30321204       1.81759812
C       -0.88098599       0.88098599       0.88098599
C       -0.84103258       2.26686664       0.74447418
C       -1.63869668       3.11477348       1.56161635
C       -4.18795333       5.22967753       4.25806435
C       -3.89373454       6.49355708       4.80545221
C       -4.75977382       7.11565137       5.71311372
C       -5.93683542       6.47935009       6.09360934
Br      -7.10545779       7.31791798       7.31900093
C       -6.25337343       5.22692838       5.57953451
C       -5.38343867       4.61044530       4.67314372
H        2.31779912      10.70542367       2.87756102
H        0.91692654       9.74423402       3.38222527
H        0.69389311      11.15579905       2.32933998
H        2.25226506       8.63498855       1.55826982
H        1.95700830      10.02470556       0.51169169
H       -0.52720704       9.59415537       0.68039156
H       -0.19281678       8.19223599       1.69972611
H        1.17605745       7.20485074      -0.17145354
H        0.76715366       8.57755242      -1.19257480
H       -0.70754647       6.63432274      -1.70331165
H       -1.62749119       8.01091534      -1.10759227
H       -2.53890625       6.33391691       2.34686284
H       -3.17284215       0.67040930       3.35513279
H       -1.77075506      -0.77558024       1.93655029
H       -0.17296215       2.68299793      -0.00586591
H       -2.97101906       7.00917278       4.54834581
H       -4.50070922       8.09028443       6.11876881
H       -7.16714977       4.71800735       5.87416843
H       -5.64710882       3.62781942       4.28260163
C        2.70425795     -10.25643752      -1.45139279
C        2.51677377      -9.01751394      -2.31090240
C        3.48968667      -7.90662357      -1.91443991
C        3.31207821      -6.68166242      -2.81261266
C        4.22204525      -5.51945884      -2.41676892
O        4.07721072      -5.13662728      -1.03913202
C        2.94109269      -4.46358822      -0.72140512
O        2.02335396      -4.22790921      -1.48761999
C        3.00343020      -4.01630818       0.70038921
C        3.76154392      -4.77516970       1.60198591
C        3.85297278      -4.36768573       2.92156481
N        3.23021889      -3.24553930       3.35088905
C        2.48737400      -2.52127075       2.50245415
C        1.86337301      -1.38715872       3.00769555
C        1.06111743      -0.56407081       2.21650353
C        0.88098599      -0.88098599       0.88098599
C        1.50438768      -2.00482413       0.34316158
C        2.31874877      -2.85368998       1.14264776
C        4.63155278      -5.10088676       3.94325567
C        4.78579576      -6.50033525       3.90661282
C        5.53101573      -7.17844459       4.87907860
C        6.13275597      -6.46585108       5.91118780
Br       7.13777859      -7.38040925       7.22418886
C        5.99278508      -5.08442635       5.98262489
C        5.24639680      -4.41276929       5.00786160
H        1.96739856     -11.01927683      -1.72148983
H        2.57759964     -10.02169471      -0.38976159
H        3.70248509     -10.68229464      -1.59353382
H        1.48558814      -8.66005152      -2.20464635
H        2.66002885      -9.28389012      -3.36453002
H        4.52159753      -8.26958456      -1.98942811
H        3.31655026      -7.63470325      -0.86647464
H        2.26422320      -6.36495141      -2.77183486
H        3.51984338      -6.95255974      -3.85457917
H        4.05141271      -4.64990951      -3.06276466
H        5.26941138      -5.81192029      -2.55051741
H        4.28553871      -5.66539940       1.26874790
H        2.00486727      -1.13602408       4.05749287
H        0.58803711       0.31056972       2.65425772
H        1.34331335      -2.21775772      -0.71097690
H        4.30955559      -7.09151530       3.12746677
H        5.62752690      -8.25968037       4.82255519
H        6.45348877      -4.51823915       6.78759763
H        5.14581222      -3.33015677       5.08156089
