161
Properties=species:S:1:pos:R:3 pbc="F F F"
C        0.00000000       0.00000000       0.00000000
C        2.35433448      -0.23313828      -9.89644708
C        3.00230608       0.52528610      -8.75279586
O        4.35685264       0.79735903      -9.11181203
C        5.13844049       1.48380853      -8.22086500
C        4.63124147       2.04137728      -7.04069258
C        5.47130674       2.70124790      -6.13706067
C        4.92985985       3.18957086      -4.85340595
N        3.73088151       2.87039028      -4.48160998
N        3.39338151       3.32780749      -3.24580753
C        2.49880292       2.50749003      -2.50738504
C        2.38880603       1.12835450      -2.74616029
C        1.57547932       0.31847609      -1.94808430
C        0.88161829       0.88161829      -0.88161829
C        1.00032508       2.24120458      -0.60454134
C        1.81660465       3.04598221      -1.40734018
C        6.82738769       2.84053342      -6.40812439
C        7.34396548       2.28235757      -7.58037537
Br       9.21438180       2.46920745      -7.88386873
C        6.51514400       1.60387399      -8.49736618
O        7.15737954       1.00699872      -9.55552807
C        6.50153068       1.04855045     -10.82162627
C        7.54545856       0.76236474     -11.88806984
H        1.31764544      -0.48536482      -9.65642241
H        2.90449605      -1.15471826     -10.11163874
H        2.36789380       0.36911559     -10.81076353
H        2.96976734      -0.09015000      -7.84616538
H        2.44944250       1.45911413      -8.59881276
H        3.57973197       1.95566950      -6.78344700
H        5.59604000       3.79548845      -4.21245265
H        3.08105862       4.30002594      -3.22196893
H        2.94503453       0.67374196      -3.56274856
H        1.50383993      -0.74323919      -2.16311037
H        0.47477242       2.68303310       0.23631044
H        1.91754234       4.09970670      -1.16230698
H        7.48375283       3.34469045      -5.70432869
H        6.05267890       2.03230475     -11.00087646
H        5.74231723       0.26387474     -10.88472365
H        8.36182263       1.48980350     -11.83988025
H        7.10051229       0.79030513     -12.88688114
H        7.99011984      -0.22673732     -11.73060998
C       -7.00342948      -7.08519135       2.07097756
C       -6.28508565      -6.76773579       0.77243340
O       -6.28620973      -7.94515138      -0.03466259
C       -5.68931155      -7.88775943      -1.26604304
C       -5.20047766      -6.69648183      -1.81635184
C       -4.56132260      -6.68731790      -3.06097481
C       -3.96504334      -5.43681970      -3.57097362
N       -3.88042331      -4.39118372      -2.81127474
N       -3.24204830      -3.33731702      -3.38763120
C       -2.51013549      -2.50053237      -2.50301014
C       -2.01798159      -2.97039368      -1.27494555
C       -1.21856507      -2.16390636      -0.45956829
C       -0.88161829      -0.88161829      -0.88161829
C       -1.33044445      -0.40492185      -2.11070470
C       -2.13003655      -1.21781142      -2.92207908
C       -4.42309241      -7.86197484      -3.79097825
C       -4.90237006      -9.05678080      -3.24754756
Br      -4.65305082     -10.64205452      -4.27235262
C       -5.53893938      -9.08766619      -1.98977860
O       -5.86798049     -10.33521325      -1.51671259
C       -7.10167985     -10.45872279      -0.81130477
C       -7.47251851     -11.93217588      -0.79119876
H       -7.00732221      -6.21593854       2.73455772
H       -6.52285525      -7.92365742       2.58509614
H       -8.03858726      -7.38175865       1.87257299
H       -5.25514941      -6.46422041       0.99358711
H       -6.82151016      -5.95507237       0.26921314
H       -5.28184639      -5.75419746      -1.28280462
H       -3.56121757      -5.44288700      -4.59987653
H       -3.82627321      -2.77134600      -4.00543427
H       -2.25598021      -3.97941200      -0.94613285
H       -0.86038663      -2.55219938       0.48887490
H       -1.05688772       0.58830905      -2.45291641
H       -2.45101552      -0.83972171      -3.88881878
H       -3.91954914      -7.85956278      -4.75366005
H       -7.89616775      -9.88613938      -1.30355298
H       -6.98267982     -10.13469028       0.22645447
H       -7.55567811     -12.32734682      -1.80848145
H       -8.42049932     -12.08869975      -0.26849949
H       -6.69388433     -12.51442909      -0.28567909
C       -9.24038048      -1.28491338       4.06217618
C       -8.40882502      -0.02615176       3.89771478
O       -9.29572984       1.09220741       3.87808645
C       -8.75756982       2.34422845       3.74131575
C       -7.37752079       2.58136441       3.75442613
C       -6.86679003       3.87111566       3.57170963
C       -5.40748744       4.07784822       3.48750100
N       -4.60315259       3.06524167       3.41448751
N       -3.29465478       3.40611710       3.26622464
C       -2.50303403       2.50051469       2.51012927
C       -3.06768768       1.64381208       1.55182106
C       -2.26559510       0.82749445       0.74895017
C       -0.88161829       0.88161829       0.88161829
C       -0.29650767       1.74737950       1.80218383
C       -1.10547673       2.56204894       2.60240138
C       -7.72466572       4.95115052       3.40022926
C       -9.10323203       4.72372971       3.37973669
Br     -10.23133962       6.23256230       3.10355605
C       -9.63616523       3.42954303       3.55067591
O      -10.99791908       3.31937210       3.40261516
C      -11.67638174       2.41885420       4.27647147
C      -13.15066543       2.78649857       4.25872914
H       -8.60325982      -2.17374552       4.05918873
H       -9.97640440      -1.37151958       3.25653171
H       -9.79814665      -1.25426413       5.00389040
H       -7.85179384      -0.08112672       2.95511560
H       -7.71702270       0.04546981       4.74487687
H       -6.66744754       1.76970462       3.88169632
H       -5.03788056       5.11877564       3.44732489
H       -2.81698165       3.65076940       4.13530243
H       -4.14720011       1.61070719       1.42361776
H       -2.73202541       0.16881864       0.02286706
H        0.78318049       1.80631677       1.89835880
H       -0.63205875       3.24963770       3.29785957
H       -7.33096000       5.95242922       3.24938275
H      -11.29026445       2.49623795       5.29935771
H      -11.58841537       1.39200018       3.91050008
H      -13.29715309       3.82603473       4.56831856
H      -13.72385140       2.13209646       4.92175070
H      -13.55390953       2.69629072       3.24379226
C       -0.54223759      -2.78941154       9.77046932
C        0.61000968      -2.88305221       8.78732615
O        1.82777877      -2.90647087       9.53177405
C        3.00785285      -2.99325052       8.84201065
C        3.06310106      -3.19309983       7.45711044
C        4.28907607      -3.23633692       6.78420233
C        4.31524909      -3.34539565       5.31219191
N        3.22276431      -3.23489251       4.62522496
N        3.40769696      -3.28093196       3.27836760
C        2.49974707      -2.50970162       2.50422929
C        1.83676544      -1.39167228       3.03488311
C        1.02074601      -0.58698944       2.23430426
C        0.88161829      -0.88161829       0.88161829
C        1.55518363      -1.96594349       0.32494388
C        2.37076161      -2.76702089       1.13214455
C        5.48258949      -3.10852460       7.48493142
C        5.43756034      -2.90281555       8.86632253
Br       7.10005900      -2.69616170       9.77123726
C        4.21139723      -2.84488807       9.56009887
O        4.29420227      -2.53043006      10.89527401
C        3.39482308      -3.19900172      11.77788261
C        3.94803504      -3.06142363      13.18643448
H       -1.49928312      -2.74480036       9.24318579
H       -0.44183664      -1.90106953      10.40218364
H       -0.54735963      -3.65789136      10.43724120
H        0.59135959      -2.01049894       8.12392418
H        0.49580455      -3.80536241       8.20620242
H        2.15796284      -3.29499114       6.86589449
H        5.29799423      -3.48116690       4.82481996
H        3.48893131      -4.22272625       2.89139593
H        1.95706780      -1.13867124       4.08578602
H        0.51393741       0.26571663       2.67549033
H        1.46394278      -2.19072011      -0.73316781
H        2.90863446      -3.59405278       0.67686877
H        6.43573496      -3.13290976       6.96412725
H        3.30554733      -4.26050844      11.51980434
H        2.41335797      -2.71678194      11.76077571
H        4.95589192      -3.48308123      13.25253322
H        3.30155916      -3.56576144      13.91037796
H        4.02596967      -2.00416245      13.46386039
