182
Properties=species:S:1:pos:R:3 pbc="F F F"
C        3.26423850       0.67676574     -10.80635110
C        3.91221010       1.43519012      -9.66269988
O        5.26675666       1.70726306     -10.02171605
C        6.04834451       2.39371256      -9.13076902
C        5.54114550       2.95128130      -7.95059660
C        6.38121077       3.61115192      -7.04696470
C        5.83976387       4.09947488      -5.76330998
N        4.64078554       3.78029431      -5.39151400
N        4.30328553       4.23771151      -4.15571155
C        3.40870694       3.41739405      -3.41728907
C        3.29871006       2.03825853      -3.65606432
C        2.48538334       1.22838012      -2.85798833
C        1.79152231       1.79152231      -1.79152231
C        1.91022910       3.15110860      -1.51444537
C        2.72650868       3.95588624      -2.31724420
C        7.73729171       3.75043745      -7.31802842
C        8.25386951       3.19226160      -8.49027939
Br      10.12428582       3.37911147      -8.79377275
C        7.42504802       2.51377801      -9.40727021
O        8.06728357       1.91690274     -10.46543210
C        7.41143471       1.95845448     -11.73153030
C        8.45536259       1.67226876     -12.79797387
H        2.22754946       0.42453920     -10.56632644
H        3.81440008      -0.24481423     -11.02154276
H        3.27779782       1.27901962     -11.72066756
H        3.87967136       0.81975402      -8.75606940
H        3.35934652       2.36901815      -9.50871678
H        4.48963600       2.86557352      -7.69335102
H        6.50594402       4.70539247      -5.12235667
H        3.99096264       5.20992996      -4.13187295
H        3.85493856       1.58364599      -4.47265259
H        2.41374395       0.16666484      -3.07301439
H        1.38467644       3.59293713      -0.67359358
H        2.82744636       5.00961072      -2.07221100
H        8.39365686       4.25459448      -6.61423271
H        6.96258292       2.94220878     -11.91078049
H        6.65222126       1.17377876     -11.79462768
H        9.27172665       2.39970753     -12.74978427
H        8.01041631       1.70020916     -13.79678516
H        8.90002387       0.68316671     -12.64051401
C       -4.16512963      -0.06854483     -10.51368089
C       -4.64107452      -0.97529618      -9.39372942
O       -5.99526888      -1.33851021      -9.66195668
C       -6.63277062      -2.16493915      -8.77511632
C       -5.97575708      -2.77042019      -7.69684613
C       -6.67235042      -3.57684374      -6.79013323
C       -5.97771057      -4.11911026      -5.60572790
N       -4.78065887      -3.72435055      -5.30758442
N       -4.29533301      -4.25049842      -4.15087717
C       -3.40876364      -3.41661327      -3.41801315
C       -3.43613222      -2.01811655      -3.53878412
C       -2.62390446      -1.20694209      -2.74090524
C       -1.79152231      -1.79152231      -1.79152231
C       -1.77094385      -3.17459942      -1.63023980
C       -2.58695588      -3.98058716      -2.43209608
C       -8.03112974      -3.81574518      -6.95888265
C       -8.69678116      -3.21117358      -8.02845575
Br     -10.56496117      -3.54132167      -8.19088720
C       -8.01410969      -2.38618863      -8.94579792
O       -8.79731388      -1.76413200      -9.88817254
C       -8.25807489      -1.64034610     -11.20299849
C       -9.41479336      -1.36242800     -12.14838386
H       -3.13553116       0.25599300     -10.33887695
H       -4.80738378       0.81392361     -10.59766844
H       -4.21153941      -0.59131348     -11.47463210
H       -4.57762611      -0.43708096      -8.44078772
H       -4.00068210      -1.86457753      -9.37182182
H       -4.91602182      -2.61121825      -7.52132048
H       -6.53011015      -4.83431832      -4.96926470
H       -3.90227888      -5.18890312      -4.24158356
H       -4.10018522      -1.54953443      -4.26151748
H       -2.66075146      -0.12890869      -2.86376304
H       -1.13619200      -3.63530313      -0.87971202
H       -2.57712190      -5.05585182      -2.27629436
H       -8.57655028      -4.43430879      -6.25162498
H       -7.74703004      -2.56088132     -11.50766083
H       -7.57571660      -0.78739955     -11.25751154
H      -10.15998687      -2.16252692     -12.09870466
H       -9.06168988      -1.26655641     -13.17916435
H       -9.92410531      -0.43439070     -11.86520857
C       -5.06130741      10.10438758      -0.41833964
C       -4.87915151       9.28499728       0.84595132
O       -4.85763439      10.18152568       1.95657570
C       -4.70572206       9.65521858       3.21188546
C       -4.70507995       8.27717702       3.46076643
C       -4.50714012       7.77900632       4.75318095
C       -4.40876791       6.32227963       4.97150120
N       -4.33746009       5.50999772       3.96513604
N       -4.17518974       4.20574780       4.31577106
C       -3.42005406       3.41285671       3.41047930
C       -2.47385446       3.97826595       2.54091248
C       -1.67110372       3.17605882       1.72458925
C       -1.79152231       1.79152231       1.79152231
C       -2.69973130       1.20605332       2.66999844
C       -3.49990135       2.01514480       3.48459297
C       -4.33385827       8.64746333       5.82443598
C       -4.32702407      10.02416731       5.58521912
Br      -4.04773027      11.16737142       7.08206835
C       -4.51341394      10.54460051       4.28808179
O       -4.37788777      11.90656843       4.16516221
C       -5.26505986      12.56993825       3.26642138
C       -5.25676707      14.04739585       3.62144230
H       -5.06039934       9.45977049      -1.30175473
H       -4.26271843      10.84642252      -0.51801235
H       -6.00744398      10.65442461      -0.38438359
H       -3.93234166       8.73549555       0.78765757
H       -5.71975812       8.58670269       0.93062064
H       -4.83314755       7.55916998       2.65624302
H       -4.35666032       5.96190086       6.01513198
H       -5.03807282       3.72285516       4.57183757
H       -2.35513074       5.05850123       2.49760516
H       -0.95460452       3.64297732       1.05584134
H       -2.78620943       0.12613264       2.73886508
H       -4.18547426       1.54174384       4.18204999
H       -4.17121777       8.26358418       6.82768210
H       -6.28393192      12.17587230       3.35576797
H       -4.90703458      12.47632518       2.23726793
H       -5.55880561      14.20010993       4.66230291
H       -5.93014553      14.60937182       2.96789328
H       -4.24609788      14.45841108       3.51919563
C        3.89891846     -10.61289036       0.23554653
C        3.95136579      -9.65076460       1.40796973
O        3.96601090     -10.41820446       2.61152041
C        4.01678184      -9.75002228       3.80602197
C        4.18853003      -8.36289574       3.89159763
C        4.19522603      -7.71328831       5.13081305
C        4.27507638      -6.24025211       5.18722025
N        4.17210533      -5.53437533       4.10611319
N        4.18836444      -4.19074137       4.31760279
C        3.41968924      -3.41394149       3.40975934
C        2.32507564      -3.95284388       2.71511338
C        1.52068929      -3.15204273       1.89901978
C        1.79152231      -1.79152231       1.79152231
C        2.85173538      -1.22745898       2.49658871
C        3.65265502      -2.03493977       3.31204432
C        4.05830836      -8.43944222       6.30800699
C        3.88043905      -9.82337194       6.23259950
Br       3.65972670     -10.76427524       7.87316810
C        3.85946814     -10.49411680       4.99251131
O        3.56954824     -11.83641479       5.04365538
C        4.27224106     -12.68840745       4.14077098
C        4.15157804     -14.10983721       4.66418996
H        3.86233742     -10.06801655      -0.71193887
H        3.02129191     -11.26329500       0.30654170
H        4.78015846     -11.26272366       0.23460287
H        3.06657360      -9.00391479       1.38500640
H        4.86419686      -9.05001399       1.32287061
H        4.29616028      -7.75232556       3.00007470
H        4.38253191      -5.76960713       6.18155413
H        5.12072000      -3.78750458       4.42454097
H        2.09033724      -5.01053170       2.81036820
H        0.68657441      -3.59948369       1.36736508
H        3.05756430      -0.16367023       2.42997262
H        4.46023745      -1.57450979       3.87452085
H        4.05433360      -7.93692883       7.27122161
H        5.33003201     -12.40840849       4.07713169
H        3.80861662     -12.66140450       3.15060658
H        4.55511282     -14.18748468       5.67862095
H        4.68217686     -14.81128654       4.01394724
H        3.09862451     -14.40887464       4.71620543
C       -0.00445707       0.01189536      -1.78238275
H       -0.66409135       0.67374010      -2.43557963
H        0.65740317      -0.63156657      -2.45157240
C       -0.90989263      -0.90692880      -0.91072765
C        0.90977584       0.90977584      -0.90977584
C       -0.00465871       1.77757030       0.00794375
H       -0.66225468       2.44313916      -0.64384735
H        0.64322798       2.43503045       0.67728295
C       -1.78241447       0.00034974      -0.00472694
H       -2.45427497      -0.65498947       0.64260836
H       -2.43311707       0.67328779      -0.65473579
C       -0.91132561       0.90220522       0.91563759
C       -0.01476271      -0.02253852       1.78660255
H       -0.67934791      -0.69751639       2.42135241
H        0.63392994       0.61504881       2.47327442
C        0.01484550      -1.77751727      -0.01636693
H        0.67870853      -2.42144646      -0.68295456
H       -0.62264859      -2.45592969       0.64226336
C        1.78714474       0.01002794       0.00389507
H        2.44202412       0.67113390       0.66197326
H        2.45385902      -0.65136977      -0.64189061
C        0.91606151      -0.90478549       0.90901405
