149
Properties=species:S:1:pos:R:3 pbc="F F F"
C        0.00000000       0.00000000       0.00000000
C        0.88164756       0.88164756      -0.88164756
C        1.63828725       0.30551728      -1.89916583
C        2.44397557       1.11233626      -2.70453126
C        2.50151228       2.49826270      -2.49120239
C        1.72798428       3.06361812      -1.46728186
C        0.92032570       2.25747733      -0.66260049
C        3.36668423       3.37050494      -3.37272886
N        4.79794859       3.05216832      -3.28236464
C        5.41125233       3.14305377      -1.97799782
C        6.50408564       4.13636812      -1.66998459
C        5.15869302       4.29396244      -1.03444819
C        5.44822339       2.68665281      -4.47034560
O        4.85996193       2.63716950      -5.55223165
C        6.90601618       2.37996388      -4.50578277
C        7.56689071       1.61449504      -3.54004472
C        8.93826437       1.35501470      -3.66357219
C        9.64068275       1.82257700      -4.77427898
C        8.98515347       2.54513963      -5.76752729
C        7.62262227       2.82095260      -5.63144967
H        1.60614970      -0.76597841      -2.07751787
H        3.02713787       0.66027517      -3.50484423
H        1.74817650       4.13685445      -1.28969304
H        0.32637754       2.71082665       0.12632730
H        3.24962472       4.42869363      -3.11242703
H        2.99599427       3.28059488      -4.39963186
H        5.45091905       2.17358704      -1.48573463
H        6.78386417       4.85346316      -2.42973725
H        7.32347479       3.80690843      -1.04396505
H        5.05822270       4.05862669       0.02099820
H        4.55346380       5.13446716      -1.35351189
H        7.03478515       1.19091362      -2.69670083
H        9.44485858       0.77402418      -2.89639483
H        9.51770986       2.89148011      -6.64962345
H        7.11190939       3.37457971      -6.41810362
C       11.04734860       1.54286157      -4.90331559
C       12.22543126       1.30859990      -5.01138375
Br      14.13029127       0.92981858      -5.18612082
C       -0.88164756      -0.88164756      -0.88164756
C       -0.90613197      -0.67766900      -2.25916939
C       -1.71247250      -1.48412255      -3.06424804
C       -2.50307682      -2.49381261      -2.49408793
C       -2.46148737      -2.69102731      -1.10636958
C       -1.65366058      -1.88606530      -0.30067763
C       -3.36670448      -3.37276265      -3.37045089
N       -4.40728130      -2.63059190      -4.09460835
C       -5.35173619      -1.87870361      -3.30186412
C       -6.82454867      -2.20463151      -3.28125818
C       -5.99755836      -2.43397555      -2.05556974
C       -4.39583066      -2.71457820      -5.49481293
O       -3.56017261      -3.38371825      -6.10547222
C       -5.42527296      -2.03537356      -6.33111630
C       -5.88580489      -0.73539241      -6.10023317
C       -6.84082826      -0.16429871      -6.95172429
C       -7.30335208      -0.87477559      -8.05941105
C       -6.81776588      -2.15154973      -8.32850478
C       -5.88179761      -2.72713162      -7.46609532
H       -0.30086891       0.10015724      -2.71697749
H       -1.72249461      -1.32823273      -4.14152994
H       -3.05761458      -3.47430400      -0.64280542
H       -1.63197744      -2.05188021       0.77298075
H       -3.86870245      -4.14527007      -2.77677286
H       -2.70574874      -3.91539852      -4.05507375
H       -5.06026677      -0.83398693      -3.21598702
H       -7.17148850      -3.07643326      -3.81914282
H       -7.52396202      -1.37844945      -3.27193679
H       -6.12332123      -1.75596702      -1.21656294
H       -5.81708697      -3.46168722      -1.76266866
H       -5.50206167      -0.13956996      -5.28076797
H       -7.20490768       0.84064428      -6.75101418
H       -7.15221285      -2.70312853      -9.20347205
H       -5.49500179      -3.72052353      -7.68906739
C       -8.27560419      -0.27905473      -8.93886684
C       -9.08986533       0.21986150      -9.67541107
Br     -10.40645673       1.02656684     -10.86634078
C       -0.88164756       0.88164756       0.88164756
C       -1.35287260       2.09757426       0.39252349
C       -2.15871346       2.90283365       1.19929597
C       -2.49116112       2.49839808       2.50141816
C       -2.01466209       1.26799533       2.97622684
C       -1.21021676       0.46108024       2.16910652
C       -3.37349400       3.36799499       3.36842904
N       -2.78578800       4.68113530       3.66555825
C       -1.50546818       4.69313711       4.33369862
C       -1.32414249       5.27086643       5.71542943
C       -1.18627581       3.79590802       5.50491981
C       -3.51744478       5.81254289       3.27523413
O       -4.61079902       5.72543938       2.71312468
C       -3.03807822       7.19461296       3.55907164
C       -1.71241764       7.60983180       3.39918102
C       -1.35225269       8.93705317       3.66754540
C       -2.32397047       9.86055417       4.05301409
C       -3.65586345       9.47222888       4.16972805
C       -4.00889808       8.14356098       3.92256547
H       -1.10436832       2.42633550      -0.61301465
H       -2.53298402       3.84835951       0.81091374
H       -2.26772496       0.92852448       3.97847456
H       -0.84938746      -0.48990212       2.55139155
H       -3.58468285       2.87950850       4.32655403
H       -4.34420701       3.46241024       2.86960377
H       -0.68558331       4.79839858       3.62625884
H       -2.19645764       5.61871218       6.25189476
H       -0.42417174       5.84007464       5.91010188
H       -0.19126912       3.36230626       5.54227581
H       -1.95557750       3.15945480       5.92641055
H       -0.94775227       6.92815386       3.04649347
H       -0.31458298       9.24338409       3.55731051
H       -4.42471262      10.19006409       4.44403671
H       -5.05427076       7.84848873       4.00183323
C       -1.95134793      11.22647834       4.31569948
C       -1.63927656      12.37043983       4.53569850
Br      -1.13468355      14.22012881       4.89141831
C        0.88164756      -0.88164756       0.88164756
C        1.08016702      -2.21831708       0.54448625
C        1.88625191      -3.02345574       1.35113543
C        2.49186281      -2.49672027       2.50239429
C        2.28786168      -1.14712580       2.82389678
C        1.48331811      -0.34066316       2.01642225
C        3.37342773      -3.36887271       3.36761759
N        2.66045885      -4.50465064       3.96737207
C        1.52543244      -4.20003573       4.80683575
C        1.50107150      -4.53087043       6.27849642
C        1.54538331      -3.10065593       5.84106440
C        3.14196063      -5.78914149       3.67411968
O        4.12387240      -5.97315153       2.95233915
C        2.52225577      -7.01255922       4.25694783
C        1.14268324      -7.21361503       4.36513220
C        0.64446915      -8.40623344       4.90614867
C        1.52289635      -9.41629267       5.29834971
C        2.89724017      -9.24879367       5.15178654
C        3.39234437      -8.05045985       4.63222032
H        0.61811437      -2.64250853      -0.34293374
H        2.04688746      -4.06538323       1.07998658
H        2.75535215      -0.71375732       3.70561453
H        1.33553124       0.70339413       2.27873978
H        3.81425342      -2.78955401       4.18693794
H        4.22024130      -3.69956768       2.75641203
H        0.59013614      -4.26528803       4.25481655
H        2.39225634      -4.94100112       6.73380712
H        0.57456368      -4.90321143       6.69657315
H        0.64530577      -2.50245091       5.94809452
H        2.45977536      -2.55075088       6.03091661
H        0.43642958      -6.46985467       4.01611535
H       -0.43012814      -8.54323268       5.00217304
H        3.58889740     -10.03991081       5.43000521
H        4.46751058      -7.93025667       4.50682547
C        1.00593835     -10.64531982       5.84226759
C        0.57298601     -11.67463007       6.29779881
Br      -0.12706129     -13.33893768       7.03435428
