182
Properties=species:S:1:pos:R:3 pbc="F F F"
C        1.79214202       1.79214202      -1.79214202
C        1.76536074       3.17554014      -1.63182414
C        2.57375406       3.98172362      -2.43611022
C        3.40728746       3.40907472      -3.40838283
C        3.42781943       2.01377934      -3.55208766
C        2.62027675       1.20703184      -2.74718287
C        4.28768753       4.28415778      -4.27447053
C        5.70703070       4.47416437      -3.74629874
O        6.10666313       3.92457046      -2.71771668
N        6.53764329       5.30788519      -4.51077850
C        7.94892671       5.39832633      -4.13375513
C        8.82024077       4.41704538      -4.88474253
C        9.04764478       3.13298524      -4.36828708
C        9.86762511       2.22872636      -5.04813472
C       10.45463038       2.60136355      -6.25500480
C       10.22583958       3.86602734      -6.79147558
C        9.40989119       4.77107367      -6.10811875
C        6.12161389       5.90394537      -5.75947992
C        5.19963110       7.09947061      -5.76372386
C        6.60515170       7.24791909      -6.24909589
H        1.12676429       3.63492787      -0.88254855
H        2.55294699       5.05975984      -2.29418503
H        4.08079803       1.54567379      -4.28578478
H        2.65054343       0.12786276      -2.86868027
H        3.80698908       5.26295218      -4.37170667
H        4.33987711       3.84261461      -5.27684552
H        8.06093202       5.23033867      -3.05545212
H        8.30595528       6.42030413      -4.29862820
H        8.59011190       2.83322046      -3.42632759
H       10.04192357       1.24224171      -4.62561347
H       10.67976240       4.15854578      -7.73420023
H        9.24276591       5.75785113      -6.53387852
H        5.97213316       5.15733544      -6.53821349
H        4.94825016       7.56640819      -4.81665367
H        4.40064033       7.12532563      -6.49667495
H        6.76163555       7.36746565      -7.31521292
H        7.27380297       7.84370555      -5.64176256
C       11.30613100       1.67328852      -6.95301870
C       12.01926278       0.89602567      -7.53760535
Br      13.17233654      -0.36074260      -8.48283251
C       -1.79214202      -1.79214202      -1.79214202
C       -2.06432752      -3.10247101      -1.40592650
C       -2.87295737      -3.90792062      -2.21070990
C       -3.40745982      -3.40923066      -3.40805454
C       -3.12960773      -2.08515507      -3.77892363
C       -2.32179047      -1.27889962      -2.97380138
C       -4.28915260      -4.28167733      -4.27548593
C       -5.78498021      -4.12974002      -4.01277358
O       -6.23132981      -3.33096429      -3.18665618
N       -6.62700549      -4.95035994      -4.77894155
C       -8.07078464      -4.73318622      -4.67703732
C       -8.59764465      -3.78977039      -5.73461364
C       -8.64948492      -2.40969972      -5.48973246
C       -9.15347316      -1.53515135      -6.45586168
C       -9.59710109      -2.03673423      -7.67716341
C       -9.53683873      -3.40221289      -7.94429088
C       -9.03747648      -4.27617432      -6.97543281
C       -6.13798263      -5.83999936      -5.80705720
C       -5.48088802      -7.14725421      -5.43468333
C       -6.78963707      -7.15659754      -6.15593206
H       -1.65960581      -3.50364819      -0.48098670
H       -3.08789895      -4.92566611      -1.89332680
H       -3.54906515      -1.67013864      -4.69305281
H       -2.11910833      -0.25449893      -3.27347920
H       -4.00090481      -5.32559718      -4.11514594
H       -4.08910580      -4.04327689      -5.32695454
H       -8.32217933      -4.34055322      -3.68399025
H       -8.58988753      -5.69531878      -4.73968130
H       -8.30208347      -2.00948754      -4.53808894
H       -9.19711374      -0.46991114      -6.24275387
H       -9.87920082      -3.79615938      -8.89714821
H       -9.00029949      -5.34116248      -7.19303359
H       -5.71953272      -5.29564719      -6.65250218
H       -5.48431524      -7.45361033      -4.39338645
H       -4.59379212      -7.44680752      -5.98204127
H       -6.79028638      -7.45614919      -7.19787855
H       -7.65238047      -7.50402239      -5.60286821
C      -10.12391503      -1.13758251      -8.67094068
C      -10.56512170      -0.38454295      -9.50322915
Br     -11.27851558       0.83305833     -10.84896920
C       -1.79214202       1.79214202       1.79214202
C       -2.91062601       1.24531262       2.41678639
C       -3.71534835       2.05083761       3.22540194
C       -3.40928867       3.40770745       3.40774890
C       -2.27523110       3.94107061       2.77738472
C       -1.46951357       3.13554986       1.96942802
C       -4.27893049       4.27742592       4.28995945
C       -3.80274059       4.38897087       5.73578235
O       -2.77158591       3.84326009       6.13410428
N       -4.60725914       5.16225702       6.58679083
C       -4.11413125       5.42794668       7.93893025
C       -3.35231741       6.73009263       8.03961864
C       -1.96664725       6.75802787       7.82424197
C       -1.25441689       7.95497588       7.93509343
C       -1.92794109       9.13264698       8.25041065
C       -3.30615981       9.12677381       8.45040887
C       -4.01637565       7.92835722       8.34435074
C       -5.77846603       5.87528768       6.13128547
C       -7.06596700       5.13386076       5.86299781
C       -6.99885841       6.11622520       6.98708306
H       -3.16083328       0.19607781       2.28732962
H       -4.57954051       1.61023715       3.71711419
H       -2.00667156       4.98577438       2.91981066
H       -0.59275111       3.56315732       1.49117803
H       -5.29483550       3.86957865       4.27723378
H       -4.32283846       5.28259583       3.85390294
H       -3.46982020       4.60489020       8.27201241
H       -4.95503776       5.42951749       8.64033235
H       -1.43317013       5.84169853       7.57479128
H       -0.17879290       7.95428653       7.77669932
H       -3.83482583      10.04427365       8.69340893
H       -5.09159148       7.93484369       8.50806040
H       -5.52292490       6.68981519       5.45494199
H       -7.12513054       4.08198602       6.12419546
H       -7.63671676       5.40454297       4.98138118
H       -7.51921855       7.05953891       6.86555665
H       -7.05069505       5.71705846       7.99151757
C       -1.19420759      10.36565594       8.37257469
C       -0.57970578      11.39830095       8.47488707
Br       0.41389167      13.06800058       8.64031754
C        1.79214202      -1.79214202       1.79214202
C        2.94229578      -1.26010604       2.37032320
C        3.74710566      -2.06552390       3.17895833
C        3.40928862      -3.40775080       3.40770560
C        2.24378080      -3.92604932       2.82385631
C        1.43799491      -3.12058968       2.01590687
C        4.27928188      -4.27712534       4.28990863
C        3.84107649      -4.33563369       5.75078364
O        2.83685033      -3.75044029       6.16165966
N        4.64775724      -5.10767198       6.60087777
C        4.18577446      -5.32229295       7.97294077
C        3.39175446      -6.59925229       8.13102193
C        2.00032891      -6.59408100       7.95450718
C        1.25901817      -7.76704010       8.11842792
C        1.90867354      -8.95412304       8.44820215
C        3.29161722      -8.98155054       8.61017474
C        4.03108999      -7.80693618       8.45105744
C        5.78574155      -5.86556040       6.13373723
C        7.08498881      -5.16826059       5.80957616
C        7.02267496      -6.11722714       6.96226458
H        3.21737465      -0.22225917       2.20460689
H        4.63651790      -1.63611895       3.63425500
H        1.95085257      -4.95849759       3.00290644
H        0.53675620      -3.53628973       1.57404052
H        5.30520473      -3.89851668       4.23792651
H        4.28339000      -5.29468617       3.88126107
H        3.57384671      -4.47263384       8.30024226
H        5.04572007      -5.32832687       8.65084068
H        1.48531553      -5.67027590       7.69406851
H        0.17978599      -7.74042858       7.98956418
H        3.80160973      -9.90656638       8.86433230
H        5.10990525      -7.83918345       8.58540686
H        5.48908791      -6.69077642       5.48781775
H        7.18023203      -4.11171412       6.03936587
H        7.62309451      -5.47890888       4.92063751
H        7.51340800      -7.07777634       6.85312977
H        7.11364609      -5.69234582       7.95327917
C        1.14520785     -10.16220096       8.62502942
C        0.50580533     -11.17396621       8.77312225
Br      -0.52805446     -12.80990506       9.01257584
C       -0.00445707       0.01189536      -1.78238275
H       -0.66409135       0.67374010      -2.43557963
H        0.65740317      -0.63156657      -2.45157240
C       -0.90989263      -0.90692880      -0.91072765
C        0.90977584       0.90977584      -0.90977584
C       -0.00465871       1.77757030       0.00794375
H       -0.66225468       2.44313916      -0.64384735
H        0.64322798       2.43503045       0.67728295
C       -1.78241447       0.00034974      -0.00472694
H       -2.45427497      -0.65498947       0.64260836
H       -2.43311707       0.67328779      -0.65473579
C       -0.91132561       0.90220522       0.91563759
C       -0.01476271      -0.02253852       1.78660255
H       -0.67934791      -0.69751639       2.42135241
H        0.63392994       0.61504881       2.47327442
C        0.01484550      -1.77751727      -0.01636693
H        0.67870853      -2.42144646      -0.68295456
H       -0.62264859      -2.45592969       0.64226336
C        1.78714474       0.01002794       0.00389507
H        2.44202412       0.67113390       0.66197326
H        2.45385902      -0.65136977      -0.64189061
C        0.91606151      -0.90478549       0.90901405
