153
Properties=species:S:1:pos:R:3 pbc="F F F"
C        0.00000000       0.00000000       0.00000000
C        0.88223800       0.88223800      -0.88223800
C        0.85545671       2.26563612      -0.72192012
C        1.66385003       3.07181959      -1.52620620
C        2.49738344       2.49917070      -2.49847881
C        2.51791541       1.10387532      -2.64218363
C        1.71037272       0.29712782      -1.83727885
C        3.37778351       3.37425376      -3.36456651
C        4.79712668       3.56426035      -2.83639472
O        5.19675911       3.01466644      -1.80781266
N        5.62773926       4.39798117      -3.60087448
C        7.03902269       4.48842231      -3.22385111
C        7.91033675       3.50714136      -3.97483851
C        8.13774076       2.22308121      -3.45838305
C        8.95772108       1.31882234      -4.13823070
C        9.54472635       1.69145953      -5.34510077
Br      10.66301399       0.47260565      -6.26181216
C        9.31593555       2.95612331      -5.88157156
C        8.49998717       3.86116964      -5.19821472
C        5.21170986       4.99404135      -4.84957590
C        4.28972707       6.18956659      -4.85381983
C        5.69524767       6.33801506      -5.33919186
H        0.21686026       2.72502384       0.02735548
H        1.64304297       4.14985581      -1.38428100
H        3.17089401       0.63576977      -3.37588076
H        1.74063941      -0.78204127      -1.95877624
H        2.89708505       4.35304816      -3.46180265
H        3.42997308       2.93271058      -4.36694150
H        7.15102800       4.32043464      -2.14554809
H        7.39605125       5.51040010      -3.38872418
H        7.68020787       1.92331644      -2.51642356
H        9.13201954       0.33233768      -3.71570945
H        9.76985838       3.24864175      -6.82429621
H        8.33286188       4.84794711      -5.62397450
H        5.06222913       4.24743142      -5.62830946
H        4.03834613       6.65650416      -3.90674965
H        3.49073630       6.21542161      -5.58677093
H        5.85173152       6.45756163      -6.40530890
H        6.36389895       6.93380153      -4.73185853
C       -0.88223800      -0.88223800      -0.88223800
C       -0.99712033      -0.60371481      -2.24217781
C       -1.80111249      -1.41167325      -3.04909008
C       -2.49878736      -2.49730736      -2.49893822
C       -2.36653652      -2.76849545      -1.12894239
C       -1.56170059      -1.96133212      -0.32174667
C       -3.36430883      -3.37580990      -3.37648506
C       -2.66189617      -4.61804899      -3.91783659
O       -1.49637111      -4.89544747      -3.62741962
N       -3.42907728      -5.43545651      -4.76206113
C       -2.85516567      -6.71489654      -5.18123389
C       -3.25402434      -7.86010469      -4.27818759
C       -2.47082372      -8.18690622      -3.16147509
C       -2.82383504      -9.25639672      -2.33454235
C       -3.96979442      -9.99687080      -2.61462144
Br      -4.44386152     -11.45112521      -1.50244507
C       -4.76886906      -9.67568202      -3.70907934
C       -4.41196509      -8.60929467      -4.53811177
C       -4.81927504      -5.17702681      -5.05902526
C       -5.20090693      -4.09352371      -6.03868285
C       -5.47402156      -5.52378479      -6.37464825
H       -0.46233259       0.23217964      -2.68437569
H       -1.87417235      -1.19142471      -4.11158273
H       -2.88226062      -3.61671888      -0.68356503
H       -1.46712861      -2.18699595       0.73675018
H       -3.72358356      -2.77216535      -4.21618694
H       -4.24158634      -3.68972458      -2.79831425
H       -1.76093660      -6.64308563      -5.21298851
H       -3.15391568      -6.92839772      -6.21286213
H       -1.57459062      -7.61100187      -2.93435538
H       -2.19727007      -9.50212265      -1.48067396
H       -5.66502945     -10.24939994      -3.92836695
H       -5.04057179      -8.37108900      -5.39312270
H       -5.45374361      -5.30162649      -4.18259991
H       -4.41398884      -3.59331022      -6.59430088
H       -6.04360231      -3.45663809      -5.79268843
H       -6.50409992      -5.86096723      -6.34953490
H       -4.89328566      -5.95895061      -7.17732274
C       -0.88223800       0.88223800       0.88223800
C       -0.31914603       1.56775746       1.95610946
C       -1.12481596       2.37633870       2.76072116
C       -2.49774782       2.49790413       2.49938100
C       -3.04774030       1.80657530       1.40965876
C       -2.24213529       0.99861453       0.60402957
C       -3.36793763       3.38009484       3.36857131
C       -3.55077913       4.80206001       2.84494261
O       -3.05802877       5.18089105       1.78031839
N       -4.32585152       5.65413447       3.64660893
C       -4.65972668       6.97633538       3.11523404
C       -5.99142240       7.00123618       2.39965803
C       -6.06133576       6.73316562       1.02470364
C       -7.28656505       6.77387868       0.35433039
C       -8.45011524       7.07145637       1.05971504
Br     -10.10809922       7.13699077       0.15234182
C       -8.40192653       7.32309227       2.42861162
C       -7.17548327       7.28714355       3.09674471
C       -4.97848642       5.21740205       4.85943864
C       -4.18145703       5.02457692       6.12707955
C       -5.20707802       6.10910403       6.05627255
H        0.74256545       1.48579374       2.17130034
H       -0.67201559       2.91572768       3.58943651
H       -4.10607683       1.90096598       1.17550172
H       -2.68291972       0.47266774      -0.23821307
H       -2.92343979       3.42023753       4.36825854
H       -4.35379880       2.90993849       3.46588789
H       -3.87357491       7.31455235       2.42888348
H       -4.65720443       7.70827062       3.92970048
H       -5.15618012       6.49717015       0.46659761
H       -7.31882130       6.57537797      -0.71413259
H       -9.30818305       7.55242310       2.98219019
H       -7.14923042       7.49072771       4.16482536
H       -5.77577660       4.50294480       4.65924861
H       -3.13866926       5.32566655       6.13726414
H       -4.39806849       4.15578052       6.73907982
H       -6.12574026       5.97315860       6.61570318
H       -4.84425561       7.12854970       6.05675370
C        0.88223800      -0.88223800       0.88223800
C        2.13904735      -1.27554443       0.42842117
C        2.94658032      -2.07945943       1.23583607
C        2.49867302      -2.49903501       2.49732491
C        1.23337982      -2.08815176       2.94244278
C        0.42583738      -1.28324708       2.13569492
C        3.37818445      -3.36473944       3.37367990
C        4.22895104      -2.59133540       4.37749531
O        4.16941227      -1.36470863       4.48511731
N        5.07995056      -3.36460823       5.18203612
C        5.79921936      -2.68911266       6.26296409
C        5.06311412      -2.74680551       7.58239699
C        4.15127537      -1.73898430       7.92894536
C        3.48271044      -1.77680885       9.15525483
C        3.71469975      -2.83055732      10.03602958
Br       2.81842209      -2.87836839      11.70064132
C        4.60350614      -3.84905792       9.70106637
C        5.27524276      -3.80735315       8.47677562
C        5.11565116      -4.80814491       5.13153104
C        5.82061384      -5.51410521       3.99839444
C        6.35903584      -5.62548973       5.38792902
H        2.50165970      -0.95809929      -0.54523036
H        3.93052620      -2.37089331       0.87576027
H        0.87269648      -2.38464728       3.92520077
H       -0.55005267      -0.97077993       2.49664712
H        4.03498385      -3.95258874       2.72436327
H        2.74003673      -4.06936568       3.92022276
H        5.98086651      -1.64084681       5.99529742
H        6.79595785      -3.12989844       6.36931925
H        3.96255018      -0.91296401       7.24443369
H        2.78889917      -0.97986398       9.41130352
H        4.78423646      -4.67395217      10.38460771
H        5.97118751      -4.60536288       8.22823310
H        4.19018867      -5.25219049       5.49559085
H        6.39045521      -4.92123567       3.28990906
H        5.34305821      -6.38569420       3.56417642
H        6.24025125      -6.57288098       5.90146981
H        7.30348109      -5.13710885       5.58896906
