161
Properties=species:S:1:pos:R:3 pbc="F F F"
C        0.00000000       0.00000000       0.00000000
C        0.88223800       0.88223800      -0.88223800
C        0.85545671       2.26563612      -0.72192012
C        1.66385003       3.07181959      -1.52620620
C        2.49738344       2.49917070      -2.49847881
C        2.51791541       1.10387532      -2.64218363
C        1.71037272       0.29712782      -1.83727885
C        3.37778351       3.37425376      -3.36456651
C        4.79712668       3.56426035      -2.83639472
O        5.19675911       3.01466644      -1.80781266
N        5.62773926       4.39798117      -3.60087448
C        7.03902269       4.48842231      -3.22385111
C        7.91033675       3.50714136      -3.97483851
C        8.13774076       2.22308121      -3.45838305
C        8.95772108       1.31882234      -4.13823070
C        9.54472635       1.69145953      -5.34510077
C        9.31593555       2.95612331      -5.88157156
C        8.49998717       3.86116964      -5.19821472
C        5.21170986       4.99404135      -4.84957590
C        4.28972707       6.18956659      -4.85381983
C        5.69524767       6.33801506      -5.33919186
H        0.21686026       2.72502384       0.02735548
H        1.64304297       4.14985581      -1.38428100
H        3.17089401       0.63576977      -3.37588076
H        1.74063941      -0.78204127      -1.95877624
H        2.89708505       4.35304816      -3.46180265
H        3.42997308       2.93271058      -4.36694150
H        7.15102800       4.32043464      -2.14554809
H        7.39605125       5.51040010      -3.38872418
H        7.68020787       1.92331644      -2.51642356
H        9.13201954       0.33233768      -3.71570945
H        9.76985838       3.24864175      -6.82429621
H        8.33286188       4.84794711      -5.62397450
H        5.06222913       4.24743142      -5.62830946
H        4.03834613       6.65650416      -3.90674965
H        3.49073630       6.21542161      -5.58677093
H        5.85173152       6.45756163      -6.40530890
H        6.36389895       6.93380153      -4.73185853
C       10.39622698       0.76338449      -6.04311468
C       11.10935875      -0.01387835      -6.62770133
Br      12.26243252      -1.27064663      -7.57292849
C       -0.88223800      -0.88223800      -0.88223800
C       -0.29934761      -1.86588277      -1.67778258
C       -1.10581529      -2.67413003      -2.48193050
C       -2.49749809      -2.49824295      -2.49929190
C       -3.06930418      -1.50793111      -1.68673907
C       -2.26320607      -0.70005472      -0.88151860
C       -3.37039426      -3.37976681      -3.36644271
C       -3.93710471      -4.60553137      -2.65514566
O       -3.72733723      -4.83053557      -1.46136541
N       -4.72382817      -5.46029471      -3.44247203
C       -5.41611647      -6.56230407      -2.77287557
C       -6.82635657      -6.20467580      -2.36128424
C       -7.07504340      -5.64443981      -1.09972180
C       -8.37837411      -5.32999556      -0.70640445
C       -9.43843486      -5.56375121      -1.57910059
C       -9.20822685      -6.10313730      -2.84226627
C       -7.90512181      -6.42190219      -3.23234754
C       -5.04952852      -5.18319641      -4.82260219
C       -4.02262974      -5.40326124      -5.90722251
C       -5.25048740      -6.25410069      -5.86786650
H        0.77658805      -2.01625026      -1.67486642
H       -0.64061847      -3.44635149      -3.09020982
H       -4.14789957      -1.36609912      -1.66854584
H       -2.72202264       0.06001062      -0.25536236
H       -2.77819954      -3.70636002      -4.22737630
H       -4.20271325      -2.77735076      -3.74956116
H       -4.85003640      -6.87887902      -1.88809531
H       -5.42720591      -7.43880265      -3.42916697
H       -6.25106638      -5.45628638      -0.41259512
H       -8.55246356      -4.90790427       0.28030115
H      -10.03263982      -6.28373295      -3.52642357
H       -7.73794699      -6.84776386      -4.21907263
H       -5.70037001      -4.31560065      -4.92199935
H       -3.08124799      -5.87558007      -5.64477189
H       -3.94167192      -4.65915889      -6.69209802
H       -6.00871394      -6.08238303      -6.62350508
H       -5.11656316      -7.29773189      -5.61526395
C      -10.78305899      -5.24736907      -1.17229808
C      -11.90918171      -4.98239904      -0.83160098
Br     -13.73002689      -4.55396490      -0.28072259
C       -0.88223800       0.88223800       0.88223800
C       -0.79812572       0.77631759       2.26856964
C       -1.60230426       1.58460279       3.07496877
C       -2.49857191       2.49735115       2.49910989
C       -2.56579591       2.59675308       1.10142536
C       -1.76092663       1.78931169       0.29454107
C       -3.36441305       3.37725283       3.37493790
C       -2.77548780       4.75459017       3.66770377
O       -1.69978735       5.12585100       3.19359985
N       -3.54031670       5.58148759       4.50479062
C       -3.09718067       6.96399655       4.69011889
C       -3.74886834       7.92337247       3.72007580
C       -3.15317468       8.18789834       2.47813201
C       -3.74067995       9.08832573       1.58576844
C       -4.93431578       9.71960538       1.92736549
C       -5.54899734       9.45576269       3.14887040
C       -4.95782915       8.55912724       4.04241515
C       -4.83886640       5.20334167       5.01311904
C       -4.95443919       4.22311978       6.15555453
C       -5.37473908       5.64330064       6.35441488
H       -0.10820326       0.07574175       2.73058362
H       -1.51980713       1.50121110       4.15616156
H       -3.23898005       3.31127855       0.63228593
H       -1.82250855       1.88109619      -0.78623036
H       -3.53854902       2.85316117       4.32022566
H       -4.33762086       3.50573634       2.88626797
H       -2.00709535       7.02627547       4.58363992
H       -3.29834286       7.27676060       5.72007207
H       -2.22103284       7.69626296       2.20265207
H       -3.25737517       9.28975941       0.63293209
H       -6.48169674       9.94420885       3.41689075
H       -5.44401326       8.36500622       4.99576401
H       -5.58293267       5.13424934       4.22078800
H       -4.04791388       3.89767146       6.65601460
H       -5.72753416       3.46442577       6.10096890
H       -6.43636656       5.85058853       6.42764696
H       -4.76699837       6.24704873       7.01551190
C       -5.53704812      10.65365858       1.01201946
C       -6.04183645      11.43592813       0.24541715
Br      -6.85803649      12.70079183      -0.99411393
C        0.88223800      -0.88223800       0.88223800
C        2.26805150      -0.81725051       0.75771094
C        3.07450291      -1.62140554       1.56596737
C        2.49909415      -2.49859426       2.49734453
C        1.10205979      -2.54663318       2.61528138
C        0.29514285      -1.74177062       1.80786591
C        3.37510078      -3.36438546       3.37711754
C        3.69292799      -2.76187675       4.74297701
O        3.23727422      -1.67557483       5.10638915
N        4.53079873      -3.52684634       5.56894985
C        4.73942692      -3.06866055       6.94320863
C        3.77359106      -3.69566603       7.92305953
C        2.54277879      -3.08080137       8.19562487
C        1.65466651      -3.64537665       9.11473096
C        1.98919329      -4.83520796       9.75688540
C        3.19933843      -5.46878679       9.48550520
C        4.08872667      -4.90051633       8.57012853
C        5.01776277      -4.83648718       5.20107716
C        6.14598527      -4.97909130       4.20803692
C        6.35769846      -5.38389803       5.63085812
H        2.72974201      -0.14222890       0.04255772
H        4.15549541      -1.55383641       1.46784796
H        0.63363565      -3.20465130       3.34425758
H       -0.78505607      -1.78832712       1.91410333
H        4.31131323      -3.55724327       2.84337935
H        2.87584001      -4.32954526       3.52423989
H        4.64755986      -1.97659900       6.99285187
H        5.77067619      -3.27903409       7.24546525
H        2.27283890      -2.15150178       7.69560719
H        0.71068362      -3.14738705       9.32199601
H        3.46177201      -6.39858860       9.98243574
H        5.03327929      -5.40129882       8.37020539
H        4.21525761      -5.57115073       5.15156167
H        6.65366554      -4.08324713       3.86468727
H        6.07189881      -5.76096330       3.46006672
H        6.42013962      -6.44366849       5.85079393
H        7.03411898      -4.77708901       6.21835101
C        1.07834059      -5.41428766      10.71009790
C        0.31550146      -5.89926691      11.50841336
Br      -0.91794491      -6.68343734      12.79922195
