141
Properties=species:S:1:pos:R:3 pbc="F F F"
C        0.00000000       0.00000000       0.00000000
C        0.88233683       0.88233683      -0.88233683
C        1.73047920       1.81727793      -0.29416051
C        2.54579129       2.61017073      -1.10121315
C        2.52274089       2.45374279      -2.48953440
C        1.68587008       1.49930302      -3.08786486
C        0.85026969       0.72360900      -2.26889894
C        1.75648917       1.23714473      -4.57512052
N        1.20481579       2.30443622      -5.41001688
C       -0.22760805       2.36170089      -5.58969377
C       -0.83998073       2.09638942      -6.94408845
C       -1.09759526       1.15142739      -5.81402570
C        2.10685399       3.16667537      -6.03599672
O        3.32615521       3.07941151      -5.90184806
C        1.62765812       4.21823038      -6.95763227
C        0.73176480       5.20899343      -6.54999548
C        0.34869453       6.20918431      -7.44950951
C        0.87636659       6.22805281      -8.74314231
C        1.79001192       5.25100737      -9.13445072
Br       2.52595001       5.29616741     -10.87604263
C        2.17307657       4.24708929      -8.24880373
H        1.77197507       1.92863939       0.78612579
H        3.21668716       3.33609279      -0.64864756
H        3.18851549       3.05810622      -3.10476070
H        0.19866488      -0.02541248      -2.71166735
H        1.24644929       0.29889889      -4.81730642
H        2.80728301       1.05286032      -4.83451455
H       -0.67999371       3.13866840      -4.97682691
H       -0.19930927       1.74731135      -7.74674582
H       -1.64847288       2.73818670      -7.27179580
H       -2.08696824       1.15464644      -5.37069816
H       -0.65907417       0.16524226      -5.88870066
H        0.34719351       5.22473467      -5.53606950
H       -0.34757105       6.98400354      -7.13936495
H        0.58137679       7.01698559      -9.43264423
H        2.90176248       3.49450997      -8.54527826
C       -0.88233683      -0.88233683      -0.88233683
C       -1.93034883      -0.31146559      -1.60010323
C       -2.72404887      -1.11664701      -2.41647929
C       -2.45684340      -2.48382888      -2.52534580
C       -1.38963200      -3.06221603      -1.82118993
C       -0.61221111      -2.24828739      -0.98227912
C       -1.01764579      -4.51115012      -2.03995851
N       -1.96411580      -5.47575846      -1.47939463
C       -1.88359696      -5.77248574      -0.06770390
C       -1.46026389      -7.14324781       0.40301455
C       -0.58905416      -5.96005887       0.68125521
C       -2.84847401      -6.10020753      -2.36084454
O       -2.87727014      -5.86298278      -3.56716187
C       -3.77868334      -7.14387194      -1.88096549
C       -4.71788035      -6.89512061      -0.87775275
C       -5.60709380      -7.90479127      -0.49550326
C       -5.56883287      -9.14942457      -1.12930427
C       -4.64607814      -9.38173412      -2.14765776
Br      -4.61638706     -11.05703647      -3.02473653
C       -3.75206513      -8.38551543      -2.53138903
H       -2.13000580       0.75512684      -1.53960971
H       -3.53850101      -0.67651078      -2.98641571
H       -3.06562784      -3.09412087      -3.19163370
H        0.22274805      -2.67518065      -0.43248714
H       -0.02280522      -4.71136109      -1.62848829
H       -0.90445273      -4.66976405      -3.12044111
H       -2.66484116      -5.26642880       0.49576835
H       -1.10514834      -7.85968813      -0.32991143
H       -2.00220890      -7.58787847       1.22857775
H       -0.54225989      -5.59834152       1.70222504
H        0.35857555      -5.91471838       0.16127408
H       -4.78068382      -5.91992915      -0.40738471
H       -6.34127708      -7.71849758       0.28397722
H       -6.27242933      -9.92538591      -0.83319137
H       -3.04383896      -8.55757950      -3.34013225
C       -0.88233683       0.88233683       0.88233683
C       -0.92932609       2.25577873       0.65681282
C       -1.74733270       3.05623385       1.45360862
C       -2.52684007       2.47949759       2.45968042
C       -2.50032358       1.09368072       2.67903366
C       -1.65459599       0.29951118       1.88867045
C       -3.43986183       0.45339343       3.67549916
N       -3.11911719       0.72286225       5.07728945
C       -2.08026292      -0.06111340       5.70463709
C       -2.41648381      -1.02934396       6.81335730
C       -1.90800960      -1.54517841       5.50502663
C       -3.88516921       1.68180337       5.74255349
O       -4.79185139       2.31310042       5.20246297
C       -3.67268620       1.95039421       7.18044036
C       -2.43867045       2.37064801       7.68143525
C       -2.30562168       2.65798600       9.04378066
C       -3.40788421       2.54473775       9.89493975
C       -4.64258398       2.14994645       9.38293959
Br      -6.14016897       2.02665084      10.53134025
C       -4.78428361       1.85528014       8.02940584
H       -0.34445076       2.70915827      -0.13912036
H       -1.79568065       4.12797281       1.27777404
H       -3.18495767       3.11347199       3.05295274
H       -1.62337924      -0.77673658       2.03827708
H       -3.47133843      -0.63032028       3.52163646
H       -4.45794252       0.79288538       3.44382998
H       -1.14979817       0.49659330       5.78911014
H       -3.45971023      -1.21233980       7.04737748
H       -1.75782631      -1.06850578       7.67218909
H       -0.89647197      -1.93423593       5.47614033
H       -2.60448078      -2.10209258       4.89248055
H       -1.58763887       2.49884705       7.02151177
H       -1.34862612       2.98623714       9.44093418
H       -3.29774941       2.78162338      10.95163381
H       -5.75212183       1.56619179       7.62323709
C        0.88233683      -0.88233683       0.88233683
C        0.32059620      -1.96184905       1.55947239
C        1.13124639      -2.77441605       2.35151273
C        2.50082035      -2.51546324       2.44973448
C        3.07737180      -1.44191872       1.75374743
C        2.24894233      -0.61447063       0.97936466
C        4.57571299      -1.24038477       1.75265667
N        5.12909873      -0.76815532       3.02201484
C        5.04050034       0.64171976       3.32500603
C        6.28865109       1.48805635       3.39990241
C        5.28590728       1.73673849       2.31868902
C        5.76865085      -1.70461839       3.83625684
O        5.86813651      -2.89505028       3.54422800
C        6.42164572      -1.28703535       5.09483970
C        5.71694883      -0.65324071       6.12056417
C        6.37324627      -0.32333243       7.31080964
C        7.72231548      -0.64537070       7.47987553
C        8.41222739      -1.30132353       6.46191910
Br      10.23002430      -1.76323226       6.70490350
C        7.76997513      -1.62847878       5.27051569
H       -0.73935541      -2.18441650       1.46942758
H        0.70129258      -3.62399709       2.87613784
H        3.12666873      -3.17791651       3.04679717
H        2.67627154       0.21898452       0.42763272
H        4.86159591      -0.54110861       0.95995009
H        5.04254312      -2.19052375       1.46159101
H        4.24722562       0.85136395       4.03963994
H        7.23565322       1.04774404       3.10683873
H        6.36708907       2.20945961       4.20388016
H        4.67834362       2.63169145       2.39172420
H        5.58477321       1.49687157       1.30696711
H        4.66014152      -0.43447315       6.01338302
H        5.83132591       0.16938029       8.11385182
H        8.22179770      -0.39512664       8.41408227
H        8.30102302      -2.15873063       4.48179706
