138
Properties=species:S:1:pos:R:3 pbc="F F F"
C        1.79271258       1.79271258      -1.79271258
C        1.36439709       3.07629871      -2.12168350
C        2.17027312       3.88462409      -2.92039120
C        3.39666035       3.39979857      -3.38602630
Br       4.44815664       4.55903996      -4.47006681
C        3.83419021       2.09901525      -3.06632323
C        3.01692517       1.30284288      -2.25755045
N        5.08174262       1.66280830      -3.57558770
C        5.66463097       0.41412772      -3.45363731
O        5.16899119      -0.55390672      -2.88831591
C        7.04094017       0.34020985      -4.12641635
C        8.06273893       1.22947954      -3.40665530
C        8.53869482       0.58756826      -2.10912983
O        9.08110152      -0.70405036      -2.36999607
C        8.09600475      -1.60285939      -2.87845235
C        7.55590920      -1.10290875      -4.21407217
H        0.41060141       3.45330648      -1.76123934
H        1.83444238       4.88702884      -3.17443468
H        3.31033350       0.29825835      -1.97085290
H        5.57105176       2.34979406      -4.14044461
H        6.90245324       0.71114023      -5.15108503
H        7.66616295       2.22883305      -3.19998559
H        8.92811781       1.35539234      -4.07018073
H        9.33244282       1.19707009      -1.66535257
H        7.73120603       0.51078302      -1.37172986
H        8.57658473      -2.57665695      -3.01783748
H        7.30519342      -1.73713290      -2.13278611
H        8.37501136      -1.12316085      -4.94467252
H        6.77814681      -1.78134252      -4.58236792
C       -1.79271258      -1.79271258      -1.79271258
C       -1.23553723      -2.42618848      -2.90065359
C       -2.03660924      -3.23624841      -3.70243076
C       -3.38969366      -3.40248909      -3.39030248
Br      -4.42461583      -4.52569541      -4.52695217
C       -3.96464224      -2.75805586      -2.27683060
C       -3.14532012      -1.95414409      -1.47785429
N       -5.34260267      -2.95915693      -2.01837902
C       -6.12235618      -2.37200024      -1.03803958
O       -5.74025372      -1.53838210      -0.22476455
C       -7.57311886      -2.86884043      -1.06560709
C       -7.66273283      -4.35189806      -0.68424289
C       -7.50682205      -4.54751825       0.81894739
O       -8.48386321      -3.78131248       1.51812846
C       -8.30704144      -2.37975771       1.31520143
C       -8.48117668      -2.02759958      -0.15829635
H       -0.18417119      -2.29630998      -3.14466606
H       -1.59886146      -3.73112907      -4.56591536
H       -3.53311883      -1.44439539      -0.60193053
H       -5.81037146      -3.57491520      -2.67600377
H       -7.92130126      -2.74347503      -2.09990221
H       -6.92169404      -4.95921832      -1.21406922
H       -8.65389860      -4.71818014      -0.98161215
H       -7.66726078      -5.60029565       1.07269094
H       -6.50260988      -4.27498955       1.16388052
H       -9.06626222      -1.86069489       1.90919185
H       -7.32949228      -2.07536617       1.70401183
H       -9.52177990      -2.23477725      -0.43996588
H       -8.31293920      -0.95554485      -0.31068817
C       -1.79271258       1.79271258       1.79271258
C       -3.17471099       1.62384888       1.76381943
C       -3.98034284       2.42262373       2.57232184
C       -3.39584956       3.38624927       3.40038640
Br      -4.55609199       4.44038469       4.48078673
C       -1.99916708       3.57095287       3.42940876
C       -1.20391928       2.75612536       2.61727385
N       -1.46841522       4.56924933       4.28247407
C       -0.15064047       4.96997950       4.41177603
O        0.79670736       4.52887739       3.77123035
C        0.02794239       6.07035239       5.46515637
C       -0.27565408       5.54809630       6.87512339
C        0.86982299       4.69646336       7.40875254
O        2.08490913       5.44063847       7.39131788
C        2.47886257       5.78653090       6.06392939
C        1.43288005       6.68598074       5.41397193
H       -3.62981994       0.87595728       1.11937001
H       -5.05895237       2.28769747       2.54925605
H       -0.12268401       2.84745350       2.60930724
H       -2.16267826       5.07774411       4.82086806
H       -0.69439111       6.85829626       5.21199112
H       -1.20838168       4.97586935       6.91073055
H       -0.40208177       6.41483261       7.53677650
H        0.66798340       4.41546036       8.44738853
H        0.99155399       3.77048065       6.83479226
H        3.43247805       6.32031842       6.12992488
H        2.65964407       4.87310702       5.48738367
H        1.40424810       7.63395965       5.96681147
H        1.72704769       6.92128840       4.38493151
C        1.79271258      -1.79271258       1.79271258
C        3.17416549      -1.61857191       1.76964190
C        3.97976084      -2.41735764       2.57816993
C        3.39579653      -3.38626644       3.40042225
Br       4.55593920      -4.44010350       4.48122071
C        1.99971876      -3.57630222       3.42350772
C        1.20446062      -2.76141156       2.61144632
N        1.46953178      -4.57977428       4.27083256
C        0.15279675      -4.98591496       4.39368428
O       -0.79379774      -4.54595797       3.75124015
C       -0.02559232      -6.09089666       5.44226203
C        0.27076301      -5.57280728       6.85530348
C       -0.87989298      -4.72747629       7.38780960
O       -2.09210197      -5.47612179       7.36302740
C       -2.47978433      -5.81849820       6.03288385
C       -1.42800666      -6.71158080       5.38349848
H        3.62887050      -0.86656769       1.12970904
H        5.05793479      -2.27831096       2.55966015
H        0.12361334      -2.85675401       2.59907740
H        2.16368034      -5.08768629       4.80992381
H        0.70063748      -6.87517601       5.18886500
H        1.20119521      -4.99723224       6.89655413
H        0.39796844      -6.44154329       7.51417916
H       -0.68299769      -4.44962276       8.42824041
H       -1.00295239      -3.79980648       6.81686483
H       -3.43162864      -6.35609409       6.09329980
H       -2.66183657      -4.90359828       5.45908492
H       -1.39788335      -7.66151551       5.93289087
H       -1.71743623      -6.94412111       4.35248733
C       -0.00445707       0.01189536      -1.78238275
H       -0.66409135       0.67374010      -2.43557963
H        0.65740317      -0.63156657      -2.45157240
C       -0.90989263      -0.90692880      -0.91072765
C        0.90977584       0.90977584      -0.90977584
C       -0.00465871       1.77757030       0.00794375
H       -0.66225468       2.44313916      -0.64384735
H        0.64322798       2.43503045       0.67728295
C       -1.78241447       0.00034974      -0.00472694
H       -2.45427497      -0.65498947       0.64260836
H       -2.43311707       0.67328779      -0.65473579
C       -0.91132561       0.90220522       0.91563759
C       -0.01476271      -0.02253852       1.78660255
H       -0.67934791      -0.69751639       2.42135241
H        0.63392994       0.61504881       2.47327442
C        0.01484550      -1.77751727      -0.01636693
H        0.67870853      -2.42144646      -0.68295456
H       -0.62264859      -2.45592969       0.64226336
C        1.78714474       0.01002794       0.00389507
H        2.44202412       0.67113390       0.66197326
H        2.45385902      -0.65136977      -0.64189061
C        0.91606151      -0.90478549       0.90901405
