117
Properties=species:S:1:pos:R:3 pbc="F F F"
C        0.00000000       0.00000000       0.00000000
C        0.88280856       0.88280856      -0.88280856
C        0.45449307       2.16639468      -1.21177947
C        1.26036909       2.97472007      -2.01048717
C        2.48675633       2.48989455      -2.47612228
Br       3.53825262       3.64913593      -3.56016279
C        2.92428619       1.18911123      -2.15641921
C        2.10702114       0.39293886      -1.34764643
N        4.17183859       0.75290428      -2.66568368
C        4.75472695      -0.49577631      -2.54373328
O        4.25908717      -1.46381075      -1.97841189
C        6.13103615      -0.56969417      -3.21651232
C        7.15283491       0.31957551      -2.49675128
C        7.62879080      -0.32233577      -1.19922581
O        8.17119749      -1.61395438      -1.46009205
C        7.18610073      -2.51276341      -1.96854833
C        6.64600517      -2.01281278      -3.30416815
H       -0.49930262       2.54340245      -0.85133532
H        0.92453835       3.97712481      -2.26453066
H        2.40042948      -0.61164567      -1.06094887
H        4.66114773       1.43989004      -3.23054059
H        5.99254922      -0.19876380      -4.24118100
H        6.75625892       1.31892902      -2.29008156
H        8.01821378       0.44548832      -3.16027671
H        8.42253880       0.28716607      -0.75544855
H        6.82130201      -0.39912100      -0.46182584
H        7.66668070      -3.48656097      -2.10793346
H        6.39528940      -2.64703692      -1.22288208
H        7.46510733      -2.03306487      -4.03476850
H        5.86824279      -2.69124654      -3.67246390
C       -0.88280856      -0.88280856      -0.88280856
C       -1.38470765      -0.37116942      -2.07679016
C       -2.18374664      -1.17605557      -2.88577413
C       -2.47656148      -2.48533509      -2.49087659
Br      -3.57163954      -3.52999192      -3.64591988
C       -1.98114297      -3.00871253      -1.27996113
C       -1.17450939      -2.19033237      -0.48276466
N       -2.32025549      -4.33890983      -0.93126122
C       -2.01221762      -5.02206566       0.23159936
O       -1.39776148      -4.56411543       1.18818861
C       -2.53913174      -6.46242033       0.22369777
C       -1.82308783      -7.31310127      -0.83297261
C       -0.42563965      -7.70852097      -0.37152021
O       -0.49585702      -8.39609208       0.87461395
C       -0.99823783      -7.56035464       1.91670682
C       -2.42453029      -7.11900216       1.60617191
H       -1.15864769       0.64691005      -2.38369753
H       -2.57299382      -0.77486551      -3.81833449
H       -0.75675491      -2.54629364       0.45331588
H       -2.90520168      -4.81734210      -1.60903458
H       -3.60572789      -6.39808764      -0.03115089
H       -1.76177427      -6.80346385      -1.80003139
H       -2.41064281      -8.22768872      -0.98564728
H        0.02499999      -8.38926357      -1.10088984
H        0.23537521      -6.83875643      -0.28062562
H       -0.98763750      -8.14360628       2.84319060
H       -0.32138488      -6.71170725       2.06195757
H       -3.06746881      -8.00879689       1.60945474
H       -2.79165831      -6.45269106       2.39488923
C       -0.88280856       0.88280856       0.88280856
C       -1.98151850       0.32206463       1.52908410
C       -2.78322669       1.12320070       2.33914894
C       -2.48030028       2.47988387       2.49258901
Br      -3.61626679       3.51470816       3.61657638
C       -1.37628121       3.05835770       1.83517772
C       -0.57718549       2.23899863       1.03142230
N       -1.12695321       4.43977314       2.02370020
C       -0.15720238       5.22246133       1.42302021
O        0.65258394       4.84017608       0.58609617
C       -0.19217088       6.67676680       1.90891662
C        0.19985316       6.78076357       3.38825128
C        1.70565982       6.63790359       3.57343707
O        2.39137074       7.61432731       2.79437859
C        2.17907247       7.42512649       1.39583163
C        0.70161503       7.58522767       1.05374790
H       -2.21838633      -0.73211453       1.40916337
H       -3.63948085       0.68268101       2.84403196
H        0.29177912       2.62955271       0.51195908
H       -1.78343161       4.90722959       2.64091715
H       -1.23005746       7.01602648       1.78888248
H       -0.31955585       6.04039911       4.00531454
H       -0.10235011       7.77242086       3.74920783
H        1.96622308       6.80841629       4.62296022
H        2.05624408       5.63429014       3.30596078
H        2.76317818       8.18484618       0.86638518
H        2.57308091       6.44826474       1.09595074
H        0.41350810       8.62521012       1.25510893
H        0.54230991       7.40754504      -0.01577499
C        0.88280856      -0.88280856       0.88280856
C        1.53688497      -1.97581500       0.31996726
C        2.34695232      -2.77748126       1.12114276
C        2.49259069      -2.48024062       2.47994184
Br       3.61705318      -3.61578629       3.51471187
C        1.82727050      -1.38206108       3.06048505
C        1.02361031      -0.58289166       2.24110445
N        2.00812722      -1.13836962       4.44392971
C        1.39921166      -0.17515228       5.22831999
O        0.56028117       0.63249013       4.84589726
C        1.87843453      -0.21469873       6.68472104
C        3.35539903       0.18377130       6.79753398
C        3.53414856       1.69108790       6.66262018
O        2.74728871       2.36852032       7.63856677
C        1.35066239       2.15055327       7.44177653
C        1.01480372       0.67076734       7.59332416
H        1.42303338      -2.20826805      -0.73586628
H        2.85793125      -3.62926820       0.67899438
H        0.49822613       0.28177268       2.63327923
H        2.62623247      -1.79414074       4.91120515
H        1.76170597      -1.25472614       7.01853431
H        3.97837454      -0.32923692       6.05765805
H        3.71311740      -0.12140827       7.78945314
H        4.58161887       1.95576842       6.83930297
H        3.26973629       2.04514266       5.65941321
H        0.81490570       2.72857680       8.20172428
H        1.05351581       2.54775293       6.46537168
H        1.21263675       0.37870657       8.63288078
H       -0.05310986       0.50728264       7.40985264
