97
Properties=species:S:1:pos:R:3 pbc="F F F"
C        0.00000000       0.00000000       0.00000000
C        0.87155557       0.87155557      -0.87155557
S        1.29049195       2.46016217      -0.46579183
C        2.20189440       2.63372441      -1.90525075
C        2.19161078       1.48953831      -2.68707608
C        2.90406135       1.34649443      -3.99234798
N        4.22750777       0.83146456      -3.73082166
C        5.11761138       0.66428034      -4.76787163
O        4.83686731       0.90124792      -5.93703895
C        6.47986426       0.20928496      -4.40988040
C        7.53288759       0.52646408      -5.26207635
N        8.82259576       0.17140602      -5.03404546
C        9.06405128      -0.54940100      -3.91385637
C        8.07408314      -0.92788023      -3.01856011
Br       8.49807872      -1.94973890      -1.49120063
C        6.75850453      -0.54587006      -3.26774409
C        1.40407183       0.45889839      -2.06676861
H        2.70420097       3.57046967      -2.11008790
H        2.99264952       2.31033500      -4.50597935
H        2.38238418       0.65210813      -4.65991816
H        4.54813358       0.81236367      -2.77255034
H        7.36981180       1.09705554      -6.17388455
H       10.10508297      -0.82213806      -3.76169889
H        5.96767009      -0.85909676      -2.59430103
H        1.24592860      -0.52617645      -2.49008312
C       -0.87155557      -0.87155557      -0.87155557
S       -0.96582527      -2.55230645      -0.69831423
C       -2.08343299      -2.66655915      -1.99087742
C       -2.38656726      -1.43416169      -2.54749622
C       -3.33462202      -1.22529118      -3.68299056
N       -4.65223427      -1.00125899      -3.13630073
C       -5.72859248      -0.84131834      -3.97985251
O       -5.62927328      -0.84453403      -5.20134687
C       -7.05756767      -0.69719076      -3.34427119
C       -8.18592237      -1.06525937      -4.07024627
N       -9.45253902      -0.98562931      -3.58987891
C       -9.59562676      -0.49761416      -2.33526573
C       -8.53012120      -0.08776941      -1.54687241
Br      -8.82325903       0.59861490       0.18510368
C       -7.23806768      -0.18576616      -2.05654471
C       -1.66575877      -0.38500182      -1.87897824
H       -2.46673562      -3.63619137      -2.28183157
H       -3.36695716      -2.10044029      -4.34156641
H       -3.05211101      -0.35582750      -4.28647196
H       -4.79514772      -1.18508027      -2.15281959
H       -8.10442266      -1.45280781      -5.08352142
H      -10.62163831      -0.44198564      -1.98101984
H       -6.39601733       0.15853085      -1.46538788
H       -1.73686351       0.66497691      -2.13794868
C       -0.87155557       0.87155557       0.87155557
S       -0.79070534       0.86385172       2.56188889
C       -2.02481842       2.04628463       2.66976650
C       -2.49203040       2.44780396       1.42839081
C       -3.56017359       3.46978102       1.21294915
N       -2.93041117       4.76390682       1.09547599
C       -3.70335857       5.89426699       0.95213778
O       -4.92659910       5.86557119       0.88298389
C       -2.98897636       7.19023193       0.91982134
C       -3.67235036       8.33683867       1.31223899
N       -3.11981522       9.57608033       1.33215169
C       -1.83319811       9.67293952       0.92236903
C       -1.08176410       8.58766043       0.49533849
Br       0.70034005       8.81737048      -0.07748998
C       -1.66595897       7.32375139       0.49066820
C       -1.80440009       1.74792328       0.37741546
H       -2.34989777       2.39227612       3.64258465
H       -4.26540587       3.49228021       2.05127779
H       -4.12698788       3.27041163       0.29701096
H       -1.95284720       4.83959134       1.34060903
H       -4.70923471       8.29292697       1.63859020
H       -1.42089538      10.67830432       0.94544409
H       -1.10273233       6.46902789       0.13111413
H       -1.99808626       1.89101987      -0.67927085
C        0.87155557      -0.87155557       0.87155557
S        2.55708501      -0.73142998       0.92793096
C        2.66819796      -2.00304698       2.06962462
C        1.43128616      -2.52761585       2.40932316
C        1.21908663      -3.63896410       3.38485303
N        1.03369919      -3.06099531       4.69509949
C        0.87902700      -3.87892809       5.79180825
O        0.85528352      -5.10199525       5.71787541
C        0.77555809      -3.21353614       7.10993539
C        1.15214887      -3.92386624       8.24541291
N        1.10868996      -3.41623486       9.50312241
C        0.64942496      -2.14908610       9.62999558
C        0.23365513      -1.37421445       8.55689344
Br      -0.41104578       0.37727902       8.82786526
C        0.29434661      -1.91203876       7.27399319
C        0.38119996      -1.85224525       1.69629361
H        3.63946341      -2.30623724       2.43905791
H        2.08111672      -4.31480675       3.41304040
H        0.33181703      -4.22985985       3.13273359
H        1.24045691      -2.07884283       4.81374784
H        1.51718894      -4.94643434       8.17712860
H        0.62238219      -1.77292508      10.64933653
H       -0.05527423      -1.33112989       6.42701870
H       -0.67213168      -2.08781502       1.79415193
