126
Properties=species:S:1:pos:R:3 pbc="F F F"
C        1.78145959       1.78145959      -1.78145959
S        2.20039597       3.37006620      -1.37569585
C        3.11179842       3.54362843      -2.81515478
C        3.10151480       2.39944234      -3.59698010
C        3.81396537       2.25639846      -4.90225200
N        5.13741180       1.74136858      -4.64072568
C        6.02751540       1.57418436      -5.67777565
O        5.74677133       1.81115195      -6.84694298
C        7.38976828       1.11918899      -5.31978443
C        8.44279161       1.43636811      -6.17198037
N        9.73249978       1.08131005      -5.94394948
C        9.97395531       0.36050302      -4.82376040
C        8.98398717      -0.01797621      -3.92846414
C        7.66840855       0.36403397      -4.17764811
C        2.31397585       1.36880242      -2.97667263
H        3.61410500       4.48037370      -3.01999193
H        3.90255354       3.22023902      -5.41588338
H        3.29228821       1.56201215      -5.56982219
H        5.45803760       1.72226769      -3.68245436
H        8.27971582       2.00695957      -7.08378857
H       11.01498700       0.08776596      -4.67160291
H        6.87757411       0.05080726      -3.50420505
H        2.15583263       0.38372757      -3.39998715
C        9.30772574      -0.79820855      -2.76226054
C        9.57885679      -1.45165313      -1.78556502
Br      10.01725276      -2.50821776      -0.20633098
C       -1.78145959      -1.78145959      -1.78145959
S       -2.16135446      -3.38562935      -1.39917421
C       -3.09753969      -3.54922221      -2.82381973
C       -3.12495773      -2.39009202      -3.58288749
C       -3.86575799      -2.23586649      -4.87099136
N       -5.19351702      -1.75231885      -4.57367019
C       -6.10705952      -1.58268807      -5.58972782
O       -5.84497347      -1.79130388      -6.76858890
C       -7.47053426      -1.16179331      -5.19641412
C       -8.53386866      -1.48315488      -6.03411654
N       -9.82545953      -1.15819909      -5.77410069
C      -10.05863660      -0.46420097      -4.63538115
C       -9.05866994      -0.08364832      -3.75215683
C       -7.74111412      -0.43462286      -4.03435365
C       -2.34545045      -1.35629850      -2.95770195
H       -3.58552053      -4.49157629      -3.03737381
H       -3.94576802      -3.19111742      -5.40179050
H       -3.37098309      -1.51845522      -5.53468423
H       -5.49541523      -1.75818073      -3.60916369
H       -8.37783164      -2.03259334      -6.96003897
H      -11.10155063      -0.21513715      -4.45766808
H       -6.94333058      -0.11893309      -3.37032276
H       -2.21487730      -0.36025167      -3.36441839
C       -9.37434111       0.66722948      -2.56466610
C       -9.63871571       1.29608963      -1.57014260
Br     -10.06618707       2.31290332       0.03791777
C       -1.78145959       1.78145959       1.78145959
S       -3.47250980       1.74650367       1.72714455
C       -3.57979202       2.95157000       2.93921961
C       -2.33785622       3.37438165       3.38569937
C       -2.12207978       4.40908513       4.44145092
N       -2.05618252       3.74257972       5.72074381
C       -1.92314421       4.48139458       6.87493663
O       -1.82110930       5.70265375       6.88110321
C       -1.94461724       3.73258012       8.15154433
C       -2.34974755       4.39592206       9.30547049
N       -2.41762677       3.81174087      10.52839167
C       -2.04457147       2.51242833      10.60121892
C       -1.60829764       1.77852814       9.50764931
C       -1.55415181       2.39540652       8.26053231
C       -1.28680818       2.67726405       2.69537867
H       -4.55271473       3.29358680       3.26816909
H       -2.94188197       5.13585771       4.46093626
H       -1.18650976       4.95600990       4.28160289
H       -2.32888205       2.77033840       5.76353920
H       -2.64742483       5.44203493       9.28100419
H       -2.10561048       2.07461328      11.59413211
H       -1.18658348       1.84534108       7.40066186
H       -0.22964409       2.83852343       2.87137983
C       -1.21173377       0.40236395       9.65768000
C       -0.87961153      -0.75017356       9.78333071
Br      -0.34259795      -2.61372924       9.98649728
C        1.78145959      -1.78145959       1.78145959
S        1.46140743      -2.06610927       3.41864132
C        2.84676257      -3.06276932       3.56104974
C        3.54553126      -3.18214970       2.37025629
C        4.78816159      -3.99209157       2.19236268
N        4.40517804      -5.32482832       1.78949970
C        5.36750683      -6.29440059       1.61756798
O        6.56625641      -6.08132422       1.75728563
C        4.89016775      -7.65508145       1.28349250
C        5.69175502      -8.74218608       1.61719899
N        5.35552344     -10.03321882       1.36901705
C        4.17421268     -10.24227487       0.74173117
C        3.32130483      -9.21892756       0.35424271
C        3.68217234      -7.90186142       0.62605688
C        2.90742893      -2.42222835       1.32979361
H        3.08339400      -3.51581828       4.51525835
H        5.36113261      -4.05317949       3.12436384
H        5.43816192      -3.56500085       1.42095978
H        3.42900199      -5.57811759       1.85564007
H        6.64999581      -8.60638397       2.11408417
H        3.93554113     -11.28570330       0.55311144
H        3.04163704      -7.08799867       0.30295073
H        3.27015452      -2.35891176       0.31048107
C        2.08464594      -9.51055352      -0.32342173
C        1.04894412      -9.75479026      -0.89096570
Br      -0.62569813     -10.14970041      -1.80863629
C       -0.00445707       0.01189536      -1.78238275
H       -0.66409135       0.67374010      -2.43557963
H        0.65740317      -0.63156657      -2.45157240
C       -0.90989263      -0.90692880      -0.91072765
C        0.90977584       0.90977584      -0.90977584
C       -0.00465871       1.77757030       0.00794375
H       -0.66225468       2.44313916      -0.64384735
H        0.64322798       2.43503045       0.67728295
C       -1.78241447       0.00034974      -0.00472694
H       -2.45427497      -0.65498947       0.64260836
H       -2.43311707       0.67328779      -0.65473579
C       -0.91132561       0.90220522       0.91563759
C       -0.01476271      -0.02253852       1.78660255
H       -0.67934791      -0.69751639       2.42135241
H        0.63392994       0.61504881       2.47327442
C        0.01484550      -1.77751727      -0.01636693
H        0.67870853      -2.42144646      -0.68295456
H       -0.62264859      -2.45592969       0.64226336
C        1.78714474       0.01002794       0.00389507
H        2.44202412       0.67113390       0.66197326
H        2.45385902      -0.65136977      -0.64189061
C        0.91606151      -0.90478549       0.90901405
