126
Properties=species:S:1:pos:R:3 pbc="F F F"
C        1.77722566       1.77722566      -1.77722566
C        2.83416324       2.54261823      -1.34164269
C        3.36356320       3.18207709      -2.49112487
C        2.59097627       2.76698287      -3.55574784
O        1.61939266       1.91176232      -3.12048619
C        2.59959704       3.06219685      -5.01430898
N        3.51293691       2.16049456      -5.75998178
C        3.38861562       0.72450832      -5.43758839
S        3.66510634       2.56596580      -7.40774106
O        4.00317973       3.97193555      -7.47430868
O        4.46405903       1.56808336      -8.08330233
C        2.05297582       2.49555053      -8.17440874
C        1.29181547       3.47230564      -8.79516356
C        0.01738876       2.98584061      -9.21265875
C       -0.12554516       1.65754968      -8.90360457
Br      -1.67759984       0.67299613      -9.26461983
S        1.24030372       0.98960258      -8.15891670
H        3.18397870       2.62923266      -0.32283285
H        4.20402387       3.86094131      -2.54074567
H        2.91929567       4.10204315      -5.14635715
H        1.57982565       2.97080981      -5.40455750
H        3.87907141       0.52355965      -4.47898193
H        3.89936960       0.09450928      -6.17100495
H        2.34311471       0.41267876      -5.37270727
H        1.63807580       4.49194081      -8.92353532
H       -0.74056432       3.58573716      -9.70285649
C       -1.77722566      -1.77722566      -1.77722566
C       -2.61442263      -1.33062226      -2.77337926
C       -3.22407610      -2.48412932      -3.32855975
C       -2.72059795      -3.56224862      -2.63086040
O       -1.83954751      -3.13152739      -1.68056628
C       -2.94604800      -5.03168418      -2.69837070
N       -2.05667065      -5.68694717      -3.68979543
C       -0.63325517      -5.29940165      -3.61805550
S       -2.39028264      -7.34380615      -3.90472441
O       -3.80663607      -7.46445163      -4.17833626
O       -1.40257223      -7.92976276      -4.78310973
C       -2.20285113      -8.18192528      -2.33815867
C       -3.10961546      -8.88632979      -1.56333940
C       -2.54065988      -9.33920575      -0.33602249
C       -1.22311565      -8.97124256      -0.24125089
Br      -0.14606220      -9.35608006       1.24212614
S       -0.66057983      -8.12984241      -1.59840076
H       -2.76687102      -0.30191408      -3.06725911
H       -3.94100422      -2.52755472      -4.13715191
H       -3.99311378      -5.20021124      -2.97437095
H       -2.78526547      -5.46501267      -1.70491482
H       -0.50299585      -4.30966511      -4.06895203
H        0.00462643      -5.97521189      -4.19429837
H       -0.27295317      -5.26888461      -2.58666296
H       -4.13802250      -9.04891255      -1.86661687
H       -3.07784668      -9.89435729       0.42417464
C       -1.77722566       1.77722566       1.77722566
C       -2.74510079       2.64551152       1.32781185
C       -3.31225474       3.24227750       2.48223292
C       -2.64939274       2.70053425       3.56377999
O       -1.70902445       1.80828226       3.13433447
C       -2.74430634       2.89577363       5.03602290
N       -3.76877614       2.01451109       5.65012602
C       -3.71915426       0.59852285       5.23303522
S       -4.01283115       2.31707099       7.30891105
O       -4.25851795       3.73617272       7.45473330
O       -4.92490617       1.33652835       7.85401020
C       -2.46944698       2.07729633       8.17619177
C       -1.69097663       2.95146849       8.91683954
C       -0.48641904       2.34608410       9.38338498
C       -0.41193074       1.03499017       8.98868819
Br       1.03913853      -0.08241475       9.38156941
S       -1.76204735       0.52062179       8.10615386
H       -3.01296539       2.82645734       0.29662149
H       -4.10600765       3.97569710       2.52400609
H       -3.00137058       3.94478537       5.22154002
H       -1.76429570       2.70392725       5.48697001
H       -4.15089465       0.49950623       4.23121211
H       -4.32368355      -0.04092544       5.88212572
H       -2.69532372       0.21638877       5.21678825
H       -1.97557570       3.98255733       9.09541889
H        0.27277047       2.85438294       9.96641685
C        1.77722566      -1.77722566       1.77722566
C        1.33339159      -2.59208511       2.79294745
C        2.48415797      -3.22384501       3.32876219
C        3.55866965      -2.74946604       2.60557128
O        3.12862002      -1.86299848       1.66002268
C        5.02589851      -2.99271543       2.65748894
N        5.42537254      -4.16654106       1.84149965
C        4.85527894      -4.21556501       0.47986838
S        7.07387512      -4.56755608       1.99738200
O        7.35609275      -4.68066269       3.41266852
O        7.40533407      -5.63263297       1.07747768
C        8.06234301      -3.16740605       1.49318603
C        8.97511912      -2.39343757       2.19072797
C        9.49058977      -1.31959090       1.40570745
C        8.95727176      -1.33580461       0.14253272
Br       9.36640806      -0.06275622      -1.16914815
S        7.88678761      -2.62106858      -0.11903320
H        0.30781812      -2.71924887       3.10897723
H        2.52802826      -3.93718464       4.14049795
H        5.30351991      -3.15982233       3.70435373
H        5.55043483      -2.09624729       2.30851084
H        3.80955488      -4.53690308       0.53515504
H        5.36050971      -4.95358351      -0.14920939
H        4.90084039      -3.24161110      -0.01395076
H        9.24098019      -2.58879797       3.22377376
H       10.20350340      -0.58426299       1.76026293
C       -0.00445707       0.01189536      -1.78238275
H       -0.66409135       0.67374010      -2.43557963
H        0.65740317      -0.63156657      -2.45157240
C       -0.90989263      -0.90692880      -0.91072765
C        0.90977584       0.90977584      -0.90977584
C       -0.00465871       1.77757030       0.00794375
H       -0.66225468       2.44313916      -0.64384735
H        0.64322798       2.43503045       0.67728295
C       -1.78241447       0.00034974      -0.00472694
H       -2.45427497      -0.65498947       0.64260836
H       -2.43311707       0.67328779      -0.65473579
C       -0.91132561       0.90220522       0.91563759
C       -0.01476271      -0.02253852       1.78660255
H       -0.67934791      -0.69751639       2.42135241
H        0.63392994       0.61504881       2.47327442
C        0.01484550      -1.77751727      -0.01636693
H        0.67870853      -2.42144646      -0.68295456
H       -0.62264859      -2.45592969       0.64226336
C        1.78714474       0.01002794       0.00389507
H        2.44202412       0.67113390       0.66197326
H        2.45385902      -0.65136977      -0.64189061
C        0.91606151      -0.90478549       0.90901405
