113
Properties=species:S:1:pos:R:3 pbc="F F F"
C        0.00000000       0.00000000       0.00000000
C        0.86732163       0.86732163      -0.86732163
C        1.92425921       1.63271421      -0.43173866
C        2.45365917       2.27217307      -1.58122084
C        1.68107224       1.85707884      -2.64584382
O        0.70948864       1.00185830      -2.21058217
C        1.68969302       2.15229283      -4.10440496
N        2.60303288       1.25059054      -4.85007776
C        2.47871160      -0.18539570      -4.52768436
S        2.75520231       1.65606177      -6.49783704
O        3.09327571       3.06203153      -6.56440466
O        3.55415500       0.65817934      -7.17339831
C        1.14307180       1.58564650      -7.26450471
C        0.38191144       2.56240161      -7.88525953
C       -0.89251526       2.07593658      -8.30275473
C       -1.03544918       0.74764566      -7.99370055
S        0.33039969       0.07969855      -7.24901267
H        2.27407468       1.71932864       0.58707117
H        3.29411984       2.95103729      -1.63084164
H        2.00939164       3.19213912      -4.23645313
H        0.66992162       2.06090578      -4.49465347
H        2.96916739      -0.38634437      -3.56907790
H        2.98946557      -0.81539474      -5.26110093
H        1.43321068      -0.49722526      -4.46280325
H        0.72817177       3.58203679      -8.01363129
H       -1.65046835       2.67583314      -8.79295246
C       -2.22862814      -0.00925331      -8.27123962
C       -3.22791552      -0.64315619      -8.50367859
Br      -4.84367869      -1.66812353      -8.87951274
C       -0.86732163      -0.86732163      -0.86732163
C       -1.89459853      -0.42545880      -1.66865476
C       -2.42564978      -1.57529060      -2.30611271
C       -1.68823984      -2.64736137      -1.84839370
O       -0.73850004      -2.21672457      -0.96670449
C       -1.72892074      -4.11271039      -2.10475967
N       -0.92022049      -4.49378667      -3.28969402
C        0.43559836      -3.91065619      -3.34594243
S       -1.06465454      -6.13990819      -3.70453839
O       -2.47827518      -6.43419453      -3.80724218
O       -0.15166435      -6.45301076      -4.78105754
C       -0.53842154      -7.13648599      -2.31831548
C       -1.22033026      -8.06277258      -1.54646975
C       -0.42067315      -8.58078770      -0.48471520
C        0.83734010      -8.03564491      -0.50759221
S        1.07711567      -6.95100846      -1.78521812
H       -2.22121028       0.59826381      -1.78338567
H       -3.24353215      -1.62013104      -3.01233559
H       -2.77469442      -4.39848578      -2.26480369
H       -1.36683143      -4.64220572      -1.21644372
H        0.36772044      -2.86258002      -3.65704133
H        1.06241927      -4.40322130      -4.09436972
H        0.93883172      -3.96058591      -2.37703448
H       -2.25265641      -8.33640066      -1.73478278
H       -0.76182074      -9.30369098       0.24719446
C        1.85761311      -8.34979225       0.45882097
C        2.71209175      -8.61289065       1.26819201
Br       4.09371145      -9.03829850       2.57687653
C       -0.86732163       0.86732163       0.86732163
C       -1.96224055       0.44260188       1.58386965
C       -2.46545632       1.58459500       2.25700177
C       -1.64481618       2.63547405       1.90370468
O       -0.67049000       2.19942799       1.05201112
C       -1.61970359       4.08438695       2.24230025
N       -0.86161214       4.35200590       3.49008313
C        0.45451068       3.68873981       3.58677113
S       -0.93920242       5.97843446       3.99146424
O       -2.33807770       6.34840696       4.03322724
O       -0.07458377       6.17818995       5.13295893
C       -0.27916953       7.01741600       2.69663747
C       -0.86302392       8.02286475       1.94368392
C        0.02435173       8.55106222       0.95946556
C        1.24701448       7.93318977       1.01972173
S        1.35200856       6.76781926       2.24330023
H       -2.35077935      -0.56513251       1.62068531
H       -3.31935180       1.63805835       2.91858863
H       -2.65571864       4.42131212       2.36095313
H       -1.17795422       4.63995824       1.40756842
H        0.31110608       2.63087162       3.83213537
H        1.06284469       4.10208081       4.39593564
H        1.01526876       3.76250225       2.65155517
H       -1.88794803       8.34534430       2.09054753
H       -0.23334497       9.33175068       0.25322161
C        2.33753691       8.24009011       0.13080497
C        3.25084944       8.49711915      -0.61366282
Br       4.72759856       8.91271336      -1.81740428
C        0.86732163      -0.86732163       0.86732163
C        1.78812417      -1.78448905       0.41609886
C        2.37518403      -2.36101480       1.57085426
C        1.77030940      -1.75910958       2.65457592
O        0.84649022      -0.84922113       2.22621775
C        1.91084648      -1.90684123       4.12870309
N        2.98625805      -1.04203557       4.67540756
C        2.97055048       0.35963359       4.21008337
S        3.27870792      -1.29585237       6.33454084
O        3.48046721      -2.71694961       6.52229507
O        4.24281956      -0.33025772       6.81265537
C        1.77636868      -0.97154309       7.24531124
C        0.99516908      -1.79142436       8.04297914
C       -0.17045968      -1.12781324       8.52882249
C       -0.21381394       0.17074679       8.09045775
S        1.12089640       0.60601643       7.14423095
H        2.01269301      -2.01023325      -0.61659412
H        3.14421914      -3.12037899       1.61140064
H        2.13811590      -2.95734246       4.34252554
H        0.95470624      -1.66479795       4.60597669
H        3.36947197       0.40867958       3.19110853
H        3.61946437       0.99908819       4.81479558
H        1.96054426       0.77721938       4.21546378
H        1.25030895      -2.82524444       8.24828646
H       -0.92543080      -1.58837971       9.15536834
C       -1.28767364       1.07886259       8.39989440
C       -2.18703113       1.83940958       8.65904759
Br      -3.64121614       3.06914973       9.07807639
