142
Properties=species:S:1:pos:R:3 pbc="F F F"
C        2.01658778       5.42107673      -4.95542924
O        1.26896485       4.59926561      -4.06898993
C        1.98291852       3.63848220      -3.37325454
C        1.20792518       2.80611059      -2.55273759
C        1.79325799       1.79325799      -1.79325799
C        3.17314607       1.56565794      -1.82054221
C        3.97190588       2.39006139      -2.63316810
C        5.35899214       2.46699124      -2.92085591
C        5.53501447       3.52172340      -3.79578153
O        4.31973775       4.07853877      -4.08223411
C        3.36551799       3.39918215      -3.37962318
C        6.74377412       4.02028721      -4.41878921
O        7.79311366       3.37581411      -4.42296975
C        6.75993258       5.35566044      -5.08420699
C        5.99904094       6.43498331      -4.61404493
C        6.07358588       7.67840814      -5.24965069
C        6.91930472       7.84848148      -6.34488099
Br       7.02455603       9.53327608      -7.19471810
C        7.69582054       6.78905463      -6.80998156
C        7.61967617       5.54539299      -6.17706599
H        1.31285006       6.09115684      -5.45889067
H        2.51356194       4.82619186      -5.72827435
H        2.72666183       6.04570018      -4.40504325
H        0.13155556       2.96225178      -2.51765490
H        3.62316126       0.77406590      -1.22881667
H        6.14938286       1.83592655      -2.53652462
H        5.35728538       6.33388833      -3.74236868
H        5.47806803       8.50800178      -4.87615955
H        8.36671992       6.92023390      -7.65544102
H        8.23829523       4.72455320      -6.53685468
C       -6.26007285      -2.97849524      -3.15452565
O       -5.37360304      -2.15674124      -2.40687612
C       -4.02241945      -2.42310185      -2.54913395
C       -3.17839267      -1.63474587      -1.75363483
C       -1.79325799      -1.79325799      -1.79325799
C       -1.19123148      -2.74386685      -2.62424788
C       -2.01682532      -3.54399144      -3.43431861
C       -1.79045739      -4.58334736      -4.37303454
C       -3.02475981      -4.96524666      -4.86251294
O       -4.00092954      -4.23075892      -4.24882217
C       -3.39820340      -3.36439586      -3.38172405
C       -3.36524023      -5.99276400      -5.82484632
O       -2.56196153      -6.86003323      -6.16990275
C       -4.72211593      -6.03357501      -6.44410907
C       -5.45004340      -4.86980922      -6.72821657
C       -6.70370705      -4.95609293      -7.34184473
C       -7.22374767      -6.20304860      -7.68587092
Br      -8.91394792      -6.31449748      -8.52410480
C       -6.50165260      -7.36631466      -7.42688948
C       -5.25001887      -7.28103030      -6.81108597
H       -7.28191498      -2.67805200      -2.90293059
H       -6.15176323      -4.03332699      -2.88293794
H       -6.12764407      -2.82061034      -4.22915086
H       -3.62422537      -0.89050703      -1.09672984
H       -0.11229477      -2.86444192      -2.64930714
H       -0.84153742      -5.00931761      -4.67097900
H       -5.05013361      -3.88546304      -6.49794574
H       -7.25923433      -4.04635853      -7.55663649
H       -6.89704008      -8.34012825      -7.70522651
H       -4.68456515      -8.19244901      -6.62268895
C       -5.46566472       2.02446977       4.90295925
O       -4.57004101       1.26379870       4.10338068
C       -3.62237954       1.98007199       3.39220372
C       -2.79315959       1.20563578       2.56797799
C       -1.79325799       1.79325799       1.79325799
C       -1.57871982       3.17545507       1.80517133
C       -2.39540289       3.97285012       2.62688236
C       -2.48591930       5.36233813       2.89858187
C       -3.49408067       5.53012796       3.82831079
O       -4.04684308       4.31413477       4.11953278
C       -3.38505532       3.36302073       3.39624726
C       -4.00994393       6.74194570       4.43096092
O       -3.74948393       7.85916878       3.98324482
C       -4.88573713       6.67686235       5.63720052
C       -4.72494173       5.69675002       6.62637743
C       -5.54731657       5.69686426       7.75746388
C       -6.51974553       6.68441873       7.90850293
Br      -7.62232107       6.68674883       9.44348031
C       -6.67675016       7.67596803       6.94213854
C       -5.85718919       7.67479364       5.81015232
H       -6.17447155       1.32757794       5.36084809
H       -6.04335414       2.72872461       4.29594940
H       -4.93316952       2.52999532       5.71424043
H       -2.94338086       0.12821967       2.53986171
H       -0.80013565       3.62776971       1.19813847
H       -1.88719925       6.15844654       2.47618824
H       -3.95231546       4.93628518       6.54494175
H       -5.41348802       4.93103840       8.51770293
H       -7.42475364       8.45590590       7.06173529
H       -5.97579668       8.45948257       5.06442385
C        2.45653241      -6.11038422       3.82617712
O        1.71798765      -5.24777717       2.97145558
C        2.20654080      -3.96031402       2.82780044
C        1.42313261      -3.11770616       2.02593459
C        1.79325799      -1.79325799       1.79325799
C        2.95667687      -1.25226119       2.35040815
C        3.76081484      -2.07900599       3.15531453
C        4.97071795      -1.90154763       3.87457371
C        5.27517392      -3.11364083       4.46370466
O        4.29588124      -4.01960534       4.16502405
C        3.37360114      -3.40084329       3.36987888
C        6.38534230      -3.47782393       5.31968431
O        7.11171330      -2.63413840       5.84604582
C        6.69416843      -4.91156108       5.59407050
C        6.49502800      -5.91612406       4.63691712
C        6.83243596      -7.24180519       4.92740357
C        7.38297760      -7.56212801       6.16756158
Br       7.84683678      -9.35339258       6.55232084
C        7.60437819      -6.56992452       7.12055403
C        7.26476973      -5.24535566       6.83200976
H        1.92501312      -7.06595829       3.87192616
H        2.50828077      -5.71441008       4.84533730
H        3.45178311      -6.30865196       3.41697020
H        0.51168728      -3.51558735       1.58418761
H        3.23874550      -0.21963765       2.16766067
H        5.56436274      -1.00071340       3.95675789
H        6.09703016      -5.68436740       3.65214483
H        6.67273264      -8.01242658       4.17707013
H        8.04566294      -6.81259324       8.08413865
H        7.45181552      -4.47216608       7.57572151
C       -0.00445707       0.01189536      -1.78238275
H       -0.66409135       0.67374010      -2.43557963
H        0.65740317      -0.63156657      -2.45157240
C       -0.90989263      -0.90692880      -0.91072765
C        0.90977584       0.90977584      -0.90977584
C       -0.00465871       1.77757030       0.00794375
H       -0.66225468       2.44313916      -0.64384735
H        0.64322798       2.43503045       0.67728295
C       -1.78241447       0.00034974      -0.00472694
H       -2.45427497      -0.65498947       0.64260836
H       -2.43311707       0.67328779      -0.65473579
C       -0.91132561       0.90220522       0.91563759
C       -0.01476271      -0.02253852       1.78660255
H       -0.67934791      -0.69751639       2.42135241
H        0.63392994       0.61504881       2.47327442
C        0.01484550      -1.77751727      -0.01636693
H        0.67870853      -2.42144646      -0.68295456
H       -0.62264859      -2.45592969       0.64226336
C        1.78714474       0.01002794       0.00389507
H        2.44202412       0.67113390       0.66197326
H        2.45385902      -0.65136977      -0.64189061
C        0.91606151      -0.90478549       0.90901405
