129
Properties=species:S:1:pos:R:3 pbc="F F F"
C        0.00000000       0.00000000       0.00000000
C        1.10668375       4.51117270      -4.04552521
O        0.35906083       3.68936158      -3.15908591
C        1.07301450       2.72857817      -2.46335051
C        0.29802115       1.89620657      -1.64283356
C        0.88335397       0.88335397      -0.88335397
C        2.26324205       0.65575391      -0.91063818
C        3.06200186       1.48015736      -1.72326408
C        4.44908812       1.55708722      -2.01095188
C        4.62511045       2.61181938      -2.88587751
O        3.40983372       3.16863474      -3.17233009
C        2.45561396       2.48927812      -2.46971915
C        5.83387010       3.11038319      -3.50888518
O        6.88320964       2.46591008      -3.51306573
C        5.85002856       4.44575641      -4.17430296
C        5.08913692       5.52507928      -3.70414091
C        5.16368186       6.76850412      -4.33974667
C        6.00940070       6.93857745      -5.43497696
C        6.78591652       5.87915061      -5.90007753
C        6.70977214       4.63548896      -5.26716197
H        0.40294604       5.18125282      -4.54898665
H        1.60365792       3.91628784      -4.81837033
H        1.81675781       5.13579616      -3.49513923
H       -0.77834846       2.05234775      -1.60775088
H        2.71325723      -0.13583812      -0.31891264
H        5.23947883       0.92602253      -1.62662060
H        4.44738136       5.42398431      -2.83246465
H        4.56816401       7.59809775      -3.96625552
H        7.45681590       6.01032988      -6.74553700
H        7.32839121       3.81464917      -5.62695065
C        6.08959516       8.22227831      -6.08249604
C        6.15675802       9.29737778      -6.62479326
Br       6.26535468      11.03572270      -7.50164201
C       -5.33504202      -1.92777299      -2.40056666
O       -4.44534336      -1.11249161      -1.64967335
C       -3.10331352      -1.44648534      -1.71514432
C       -2.25973236      -0.66032026      -0.91700867
C       -0.88335397      -0.88335397      -0.88335397
C       -0.29013644      -1.89885832      -1.64063938
C       -1.11522277      -2.69829871      -2.45190182
C       -0.89617812      -3.79040920      -3.33053990
C       -2.12373894      -4.13867700      -3.86039140
O       -3.09070312      -3.33216507      -3.32793037
C       -2.48743813      -2.45378018      -2.47339293
C       -2.46867441      -5.19432672      -4.79013734
O       -1.69276544      -6.11267391      -5.05674610
C       -3.79639284      -5.20285621      -5.47083889
C       -4.45438343      -4.02205404      -5.84191964
C       -5.68153625      -4.08038187      -6.51001452
C       -6.24420837      -5.31737471      -6.82137204
C       -5.59087130      -6.49860999      -6.47566337
C       -4.36589051      -6.44108343      -5.80544913
H       -6.35179292      -1.56953625      -2.21185633
H       -5.28956568      -2.97230174      -2.07644866
H       -5.14651928      -1.82744474      -3.47372917
H       -2.69901100       0.13386733      -0.31660649
H        0.78185370      -2.06942158      -1.60876387
H        0.04393646      -4.27279289      -3.56326553
H       -4.01891938      -3.04705770      -5.63785323
H       -6.18275396      -3.15759617      -6.79216715
H       -6.01913568      -7.46559199      -6.72795510
H       -3.85364805      -7.36725849      -5.54908449
C       -7.50423893      -5.37397874      -7.51615184
C       -8.55951452      -5.42138461      -8.09802993
Br     -10.26580590      -5.49803590      -9.03887759
C       -4.11773562       1.09817968       4.44746637
O       -3.22975694       0.34912656       3.62862483
C       -2.49848333       1.06804104       2.69841882
C       -1.67674754       0.29327759       1.86703616
C       -0.88335397       0.88335397       0.88335397
C       -0.87652679       2.26801401       0.68509334
C       -1.68970037       3.06653109       1.50919183
C       -1.94958488       4.45757188       1.60997046
C       -2.84317550       4.63011117       2.64952067
O       -3.16722757       3.40980331       3.17376768
C       -2.47044002       2.45520678       2.48896444
C       -3.45110719       5.84123478       3.16079650
O       -3.41917076       6.90381419       2.53920049
C       -4.14472974       5.84352192       4.48183627
C       -3.71419251       5.04999493       5.55416967
C       -4.37479538       5.11194228       6.78519498
C       -5.45531434       5.97734024       6.95030054
C       -5.88089183       6.78595416       5.89829867
C       -5.22300664       6.72247123       4.66694521
H       -4.65032648       0.39147016       5.09138886
H       -4.86686508       1.62420447       3.84724653
H       -3.56607964       1.78282867       5.09878488
H       -1.66781719      -0.78666002       2.00059300
H       -0.25845259       2.72177975      -0.08390059
H       -1.53508011       5.25264350       1.00439835
H       -2.85430229       4.39183815       5.45768988
H       -4.03199219       4.49108329       7.60944181
H       -6.71461089       7.47203880       6.02603308
H       -5.55181422       7.36593971       3.85223710
C       -6.12857577       6.04434016       8.22145358
C       -6.69243221       6.10045259       9.28604426
Br      -7.60414039       6.19118165      11.00739734
C        1.93395140      -5.33602207       2.39340821
O        1.19166123      -4.45790161       1.55794548
C        1.48742289      -3.10980722       1.66771307
C        0.69723529      -2.26558799       0.87423801
C        0.88335397      -0.88335397       0.88335397
C        1.86169278      -0.28424107       1.68370028
C        2.66926745      -1.11061770       2.48553815
C        3.72813460      -0.88629984       3.40269278
C        4.13630332      -2.12336241       3.86314160
O        3.36037570      -3.09517801       3.29524484
C        2.46846597      -2.48976766       2.45637761
C        5.16395939      -2.46385741       4.82532167
O        5.67144732      -1.62277608       5.56796205
C        5.65360556      -3.86789274       4.94858964
C        5.74530674      -4.72773357       3.84531681
C        6.24382109      -6.02471076       4.00340079
C        6.66521062      -6.45800820       5.25973629
C        6.59778592      -5.60660304       6.36075571
C        6.09703061      -4.31131530       6.20407717
H        1.55739268      -6.34986665       2.22592617
H        1.78498248      -5.10122772       3.45210588
H        2.99398885      -5.33156178       2.12214256
H       -0.07256737      -2.70873468       0.24558287
H        2.00061935       0.79276742       1.68847983
H        4.15677814       0.06233925       3.69768306
H        5.45255794      -4.40049071       2.85078166
H        6.30954934      -6.68273103       3.14023692
H        6.93745548      -5.93536028       7.33986701
H        6.05854571      -3.64605411       7.06539121
C        7.18516954      -7.79153821       5.41766177
C        7.62063513      -8.90836958       5.54992435
Br       8.32474616     -10.71419147       5.76378176
