121
Properties=species:S:1:pos:R:3 pbc="F F F"
C        0.00000000       0.00000000       0.00000000
N        2.76049861       7.25469249      -5.58961151
C        2.92147860       6.50956460      -4.71590883
C        3.12637860       5.55067539      -3.62713825
C        3.28418282       4.14545880      -4.19035733
N        3.49036118       3.16498655      -3.13338251
C        2.47550106       2.48641329      -2.48582335
C        1.07977766       2.53043659      -2.64808342
C        0.29372058       1.71324069      -1.82961467
C        0.88288809       0.88288809      -0.88288809
C        2.26975436       0.84220551      -0.72296944
C        3.08229366       1.65932119      -1.53826740
C        4.49516418       1.86022398      -1.62806584
C        5.59736147       1.31495189      -0.93492607
C        6.88726597       1.73703619      -1.26451938
C        7.10023840       2.68276325      -2.26106316
C        6.02290490       3.23498019      -2.96094221
C        4.72584413       2.80687629      -2.62832740
H        2.27716334       5.59081068      -2.93501075
H        4.01483997       5.83197416      -3.04999161
H        4.13380879       4.08182203      -4.88091635
H        2.40173565       3.84176289      -4.76647084
H        0.60707384       3.17221067      -3.38499810
H       -0.78777936       1.73418147      -1.94412735
H        2.72433609       0.19248752       0.01882298
H        5.43690908       0.57690561      -0.15485982
H        8.11032138       3.00215915      -2.50782512
H        6.20334090       3.97051477      -3.73862306
C        8.01345865       1.18326154      -0.55838646
C        8.95664501       0.71947528       0.03299986
Br      10.48169760      -0.03042789       0.98922151
N       -2.94947384      -7.49312641      -5.16220235
C       -3.11391058      -6.65424294      -4.37879851
C       -3.32009449      -5.57840487      -3.40569288
C       -3.28781744      -4.22696823      -4.10521327
N       -3.49029868      -3.13275303      -3.16567852
C       -2.47565084      -2.48733198      -2.48475488
C       -1.08213802      -2.67185895      -2.50430069
C       -0.29591817      -1.85175062      -1.68890715
C       -0.88288809      -0.88288809      -0.88288809
C       -2.26774161      -0.70269532      -0.86449238
C       -3.08048427      -1.52004178      -1.67935620
C       -4.49252986      -1.60153088      -1.88939325
C       -5.59332294      -0.89424662      -1.35966988
C       -6.88379460      -1.22955286      -1.77547407
C       -7.09872986      -2.24586791      -2.69946704
C       -6.02265975      -2.95847290      -3.23769466
C       -4.72477357      -2.61754378      -2.81873048
H       -2.54432598      -5.62609388      -2.63256491
H       -4.27999881      -5.72089077      -2.89591617
H       -4.06182098      -4.15579549      -4.87893070
H       -2.33176259      -4.06164425      -4.61656255
H       -0.61082171      -3.42274979      -3.13071111
H        0.78416081      -1.98057637      -1.69411391
H       -2.72075183       0.05492669      -0.23217550
H       -5.43149911      -0.10036614      -0.63680926
H       -8.10917666      -2.49629453      -3.01483446
H       -6.20425599      -3.74784057      -3.96038217
C       -8.00869622      -0.51041534      -1.23599509
C       -8.95080133       0.09186233      -0.78418144
Br     -10.47410560       1.06569438      -0.05363698
N       -5.60254774       2.75573436       7.24652051
C       -4.72624074       2.91633607       6.50437522
C       -3.63412492       3.12085190       5.54921542
C       -4.19283343       3.28431943       4.14284608
N       -3.13244721       3.49026734       3.16601569
C       -2.48585473       2.47549945       2.48638352
C       -2.65225361       1.08012894       2.52591512
C       -1.83369533       0.29406793       1.70881267
C       -0.88288809       0.88288809       0.88288809
C       -0.71886571       2.26939869       0.84666491
C       -1.53417685       3.08193278       1.66377262
C       -1.62049136       4.49447287       1.86848976
C       -0.92261576       5.59623010       1.32839358
C       -1.24971454       6.88586069       1.75324631
C       -2.24836483       7.09898574       2.69671424
C       -2.95292820       6.02209155       3.24380755
C       -2.62281116       4.72531335       2.81292331
H       -2.94456070       2.26953241       5.58889165
H       -3.05523959       4.00683277       5.83473338
H       -4.88076024       4.13611267       4.07967426
H       -4.77060377       2.40441413       3.83495149
H       -3.39237202       0.60770871       3.16420188
H       -1.95137715      -0.78715304       1.72630535
H        0.02610120       2.72370576       0.20039608
H       -0.14088906       5.43565175       0.59213370
H       -2.49314142       8.10885354       3.01831069
H       -3.73220481       6.20265369       3.97762023
C       -0.53875238       8.01160009       1.20475418
C        0.05667844       8.95440684       0.74539203
Br       1.01943970      10.47884561       0.00264228
N        6.07412291      -2.62258746       6.90809224
C        5.10833886      -2.75779095       6.28082222
C        3.90087495      -2.93365309       5.46966420
C        4.27881605      -3.29976128       4.04142162
N        3.10014114      -3.48278610       3.20580299
C        2.48695810      -2.47556471       2.48521490
C        2.79656837      -1.11086650       2.35086279
C        1.97489723      -0.32428664       1.53739208
C        0.88288809      -0.88288809       0.88288809
C        0.57689177      -2.23876108       1.01927646
C        1.39268458      -3.05114584       1.83605182
C        1.35858445      -4.43656391       2.18830562
C        0.49698696      -5.50180887       1.84844360
C        0.73801980      -6.77056340       2.38023833
C        1.80967000      -6.99824585       3.23614896
C        2.67615759      -5.95762466       3.58504506
C        2.43218451      -4.68207359       3.04678972
H        3.30948874      -2.01066508       5.48283095
H        3.27134930      -3.71571425       5.90974220
H        4.86589803      -4.22540257       4.00524657
H        4.90411477      -2.52583691       3.58001770
H        3.64750012      -0.66259595       2.85418654
H        2.20220205       0.73310638       1.42143380
H       -0.27790296      -2.66938627       0.50651733
H       -0.34225822      -5.32953468       1.18139805
H        1.98593600      -7.99160876       3.64276089
H        3.51069127      -6.14962548       4.25216197
C       -0.13987483      -7.85889320       2.03608828
C       -0.87511159      -8.77036941       1.74786262
Br      -2.06392724     -10.24414935       1.28182610
