113
Properties=species:S:1:pos:R:3 pbc="F F F"
C        0.00000000       0.00000000       0.00000000
N        2.76049861       7.25469249      -5.58961151
C        2.92147860       6.50956460      -4.71590883
C        3.12637860       5.55067539      -3.62713825
C        3.28418282       4.14545880      -4.19035733
N        3.49036118       3.16498655      -3.13338251
C        2.47550106       2.48641329      -2.48582335
C        1.07977766       2.53043659      -2.64808342
C        0.29372058       1.71324069      -1.82961467
C        0.88288809       0.88288809      -0.88288809
C        2.26975436       0.84220551      -0.72296944
C        3.08229366       1.65932119      -1.53826740
C        4.49516418       1.86022398      -1.62806584
C        5.59736147       1.31495189      -0.93492607
C        6.88726597       1.73703619      -1.26451938
Br       8.36710234       1.00936687      -0.33664869
C        7.10023840       2.68276325      -2.26106316
C        6.02290490       3.23498019      -2.96094221
C        4.72584413       2.80687629      -2.62832740
H        2.27716334       5.59081068      -2.93501075
H        4.01483997       5.83197416      -3.04999161
H        4.13380879       4.08182203      -4.88091635
H        2.40173565       3.84176289      -4.76647084
H        0.60707384       3.17221067      -3.38499810
H       -0.78777936       1.73418147      -1.94412735
H        2.72433609       0.19248752       0.01882298
H        5.43690908       0.57690561      -0.15485982
H        8.11032138       3.00215915      -2.50782512
H        6.20334090       3.97051477      -3.73862306
N       -7.82280932      -3.98747740      -3.79451588
C       -6.77564147      -3.49613270      -3.87517787
C       -5.44305598      -2.89394978      -3.96718648
C       -4.40133163      -3.83679898      -3.38186834
N       -3.06240924      -3.26882193      -3.45749907
C       -2.48918719      -2.48149193      -2.47705859
C       -2.97837764      -2.04720924      -1.23271078
C       -2.15207235      -1.24147836      -0.44302523
C       -0.88288809      -0.88288809      -0.88288809
C       -0.40000181      -1.31471390      -2.12021360
C       -1.21764665      -2.12839605      -2.93383955
C       -1.03913725      -2.72183880      -4.22247793
C        0.02060659      -2.71291615      -5.15492987
C       -0.12457858      -3.40479340      -6.35944955
Br       1.29328578      -3.39399507      -7.61240861
C       -1.29309232      -4.09892483      -6.65204766
C       -2.35475178      -4.12184947      -5.74222606
C       -2.20507152      -3.42610850      -4.52986781
H       -5.43296281      -1.93625460      -3.43376736
H       -5.21008083      -2.67171847      -5.01500644
H       -4.39018025      -4.79977920      -3.90658772
H       -4.61269488      -4.06674035      -2.33053416
H       -3.96620662      -2.32189046      -0.87618553
H       -2.51511186      -0.89881919       0.52340160
H        0.59172331      -1.03065268      -2.45907126
H        0.93505750      -2.17147744      -4.93225457
H       -1.39250287      -4.63389892      -7.59390386
H       -3.26053254      -4.66997120      -5.98197499
N       -2.59513180       6.24580246       6.76386835
C       -2.64526962       5.81193181       5.68975060
C       -2.71875518       5.24462602       4.34081104
C       -3.36553078       3.86756102       4.38690715
N       -3.45508226       3.27337254       3.06027543
C       -2.47617186       2.48316155       2.48840429
C       -1.22984354       2.05260798       2.97584614
C       -0.44095421       1.24537788       2.15024384
C       -0.88288809       0.88288809       0.88288809
C       -2.12100357       1.31322646       0.40069928
C       -2.93333653       2.12934318       1.21720254
C       -4.21685326       2.73242952       1.03417121
C       -5.14419692       2.73312526      -0.03008275
C       -6.33746151       3.44619478       0.10516525
Br      -7.58236278       3.45056847      -1.31981336
C       -6.62356151       4.15256151       1.26794178
C       -5.71961544       4.16442309       2.33478878
C       -4.52021461       3.44428456       2.19654866
H       -1.71173835       5.17866986       3.91257656
H       -3.29310969       5.91388469       3.68981137
H       -4.37789819       3.91234684       4.80630213
H       -2.80160153       3.17976574       5.02860212
H       -0.87390628       2.32618207       3.96419426
H        0.52520838       0.90222119       2.51351665
H       -2.46056750       1.02783542      -0.59040228
H       -4.92549189       2.18421092      -0.94102830
H       -7.55703387       4.70332157       1.35995021
H       -5.95658278       4.71778229       3.23811366
N        7.78134859      -4.32529095       3.49816307
C        6.78598416      -3.74277204       3.61819584
C        5.51663493      -3.02523812       3.76231919
C        4.35932584      -3.91962121       3.34105190
N        3.07964838      -3.23680576       3.47227609
C        2.48876341      -2.48248370       2.47649059
C        2.90369445      -2.18879555       1.16580767
C        2.07887506      -1.38008769       0.37761319
C        0.88288809      -0.88288809       0.88288809
C        0.47381932      -1.17521111       2.18589887
C        1.29143338      -1.98923118       2.99921769
C        1.17651796      -2.46374758       4.34318845
C        0.20292387      -2.29332124       5.35099432
C        0.39485543      -2.89939956       6.59456654
Br      -0.90738015      -2.67209368       7.94840437
C        1.52645086      -3.66462117       6.85299278
C        2.50276633      -3.84736256       5.86869842
C        2.30600924      -3.23767583       4.61736276
H        5.53602457      -2.11438371       3.15257649
H        5.39063721      -2.70354654       4.80262200
H        4.31768890      -4.83461275       3.94424551
H        4.46295964      -4.24742568       2.29958406
H        3.83370241      -2.57248769       0.75809251
H        2.38476869      -1.14523518      -0.63947441
H       -0.46081844      -0.78324368       2.57557539
H       -0.68224244      -1.69574814       5.15516881
H        1.66297471      -4.13135759       7.82597335
H        3.38023806      -4.44952002       6.08272065
