150
Properties=species:S:1:pos:R:3 pbc="F F F"
O        3.16325918       8.30970239      -6.12413518
C        3.99849508       7.58337283      -5.34896539
O        4.94654589       8.08050188      -4.76312891
C        3.62575402       6.12864049      -5.30208434
C        4.58664202       5.36304050      -4.40279631
N        4.23576546       3.95099818      -4.33211022
C        3.38913272       3.39887839      -3.38954661
C        2.70083080       3.97808739      -2.30915003
C        1.90121226       3.15051340      -1.51481277
C        1.79269657       1.79269657      -1.79269657
C        2.47723302       1.21950433      -2.86731348
C        3.29120924       2.03668434      -3.68109682
C        4.10438730       1.77918218      -4.82872426
C        4.39457573       0.61289685      -5.56938637
C        5.24825630       0.69929375      -6.67154366
C        5.81299209       1.91248646      -7.04875635
C        5.53940434       3.07946938      -6.32885074
C        4.68185647       2.98911570      -5.21880288
H        2.44454585       7.79446514      -6.53860100
H        3.65773962       5.72871947      -6.32209264
H        2.60071486       6.04320278      -4.92271151
H        4.58865465       5.76480595      -3.38294956
H        5.61975308       5.43700295      -4.76246589
H        2.78194196       5.03625672      -2.07949953
H        1.36637055       3.58288447      -0.67270986
H        2.38955764       0.15809705      -3.07919487
H        3.95676588      -0.33741731      -5.27886454
H        6.47810868       1.96526927      -7.90782635
H        5.99058875       4.02044376      -6.62859317
C        5.54689433      -0.48901359      -7.42807588
C        5.79700367      -1.48422098      -8.06167162
Br       6.20140934      -3.09338716      -9.08614234
O       -6.93262852      -2.92022099      -7.74424724
C       -5.93050512      -3.70678235      -7.29354582
O       -5.30670185      -4.45700109      -8.02647373
C       -5.68918522      -3.54819506      -5.81909858
C       -4.54102961      -4.44156626      -5.36988297
N       -4.28066327      -4.29394768      -3.94426292
C       -3.39121157      -3.38777962      -3.39856654
C       -2.53885987      -2.44682318      -4.00238517
C       -1.73957982      -1.65219820      -3.17476040
C       -1.79269657      -1.79269657      -1.79269657
C       -2.64100248      -2.72811160      -1.19493675
C       -3.45534165      -3.54158644      -2.01206232
C       -4.41025346      -4.56874206      -1.73329821
C       -4.88887528      -5.14923827      -0.53874539
C       -5.85269944      -6.15777497      -0.60861930
C       -6.34624242      -6.59550061      -1.83249188
C       -5.88553558      -6.03464376      -3.02754513
C       -4.91390925      -5.02156109      -2.95430472
H       -7.35285151      -2.36660596      -7.05815451
H       -6.60944905      -3.81317857      -5.28592410
H       -5.45471084      -2.49685259      -5.61506572
H       -3.61627164      -4.20946229      -5.91067623
H       -4.75315625      -5.49906176      -5.56700391
H       -2.48521696      -2.33171187      -5.08076939
H       -1.07170143      -0.92317473      -3.62708873
H       -2.67773720      -2.83424605      -0.11486631
H       -4.50643618      -4.81165204       0.41987511
H       -7.09502717      -7.38345378      -1.87272335
H       -6.27339700      -6.38820989      -3.97801879
C       -6.34176079      -6.75244988       0.60825405
C       -6.75134968      -7.25049011       1.62738548
Br      -7.41362026      -8.05577905       3.27523480
O       -7.32535668       2.88340232       7.38833775
C       -6.22786278       3.61311341       7.08985710
O       -5.61223919       4.24480031       7.93313717
C       -5.87228340       3.55286977       5.63132568
C       -4.62134792       4.37577326       5.35535765
N       -4.25023789       4.32084155       3.94779442
C       -3.39212881       3.38721377       3.39821515
C       -2.67397394       2.33006157       3.98403270
C       -1.87184664       1.53767771       3.15701407
C       -1.79269657       1.79269657       1.79269657
C       -2.50780751       2.84350726       1.21273605
C       -3.32245921       3.65676467       2.02976653
C       -4.16390513       4.78238191       1.76600670
C       -4.48832632       5.49638938       0.59214326
C       -5.37054312       6.57632750       0.67222308
C       -5.93230419       6.95585640       1.88607431
C       -5.62413978       6.26287321       3.06071147
C       -4.73424670       5.17801030       2.97751806
H       -7.72715066       2.42540783       6.62505349
H       -6.71826665       3.93907529       5.05120978
H       -5.70599867       2.50484521       5.35578527
H       -3.76892942       4.02121199       5.94626874
H       -4.76434563       5.42851156       5.62636472
H       -2.72406098       2.12456738       5.04906985
H       -1.30664062       0.71921737       3.59610690
H       -2.44150451       3.03874750       0.14659756
H       -4.05200217       5.20471073      -0.35849979
H       -6.61610705       7.80037671       1.93472053
H       -6.06385501       6.57154588       4.00422479
C       -5.70224471       7.30711546      -0.52340354
C       -5.98004478       7.91915037      -1.52474084
Br      -6.42922401       8.90875906      -3.14381856
O        2.88732196      -7.49095521       7.21881957
C        3.63493554      -7.14981148       6.14608627
O        4.30045290      -7.96346866       5.52625511
C        3.54843823      -5.68505827       5.82298235
C        4.39327178      -5.36063129       4.59857576
N        4.31364814      -3.94632823       4.25889750
C        3.38736044      -3.39832540       3.39187189
C        2.36124126      -3.99126379       2.63556317
C        1.56826322      -3.16403361       1.83424159
C        1.79269657      -1.79269657       1.79269657
C        2.81268662      -1.20568655       2.54567766
C        3.62600106      -2.02274795       3.36024139
C        4.72531742      -1.75302557       4.23395075
C        5.40366743      -0.57097849       4.60221303
C        6.46452156      -0.64692781       5.50764434
C        6.85957638      -1.86463367       6.05002485
C        6.20188177      -3.04735276       5.69848993
C        5.13620929      -2.96822377       4.78534199
H        2.40223596      -6.74817764       7.62719838
H        3.90115856      -5.11634774       6.69104543
H        2.49831136      -5.42995430       5.63836349
H        4.07258249      -5.93924759       3.72458007
H        5.44854073      -5.61054457       4.76013661
H        2.17989716      -5.06165216       2.65614890
H        0.77369973      -3.60842971       1.23983545
H        2.98413106      -0.13405079       2.50866771
H        5.09974262       0.38272594       4.18119642
H        7.68898312      -1.90991319       6.75230798
H        6.52254428      -3.99361885       6.12346255
C        7.15895979       0.55708611       5.88408295
C        7.74055180       1.56544777       6.19935028
Br       8.68093690       3.19588329       6.70911090
C       -0.00445707       0.01189536      -1.78238275
H       -0.66409135       0.67374010      -2.43557963
H        0.65740317      -0.63156657      -2.45157240
C       -0.90989263      -0.90692880      -0.91072765
C        0.90977584       0.90977584      -0.90977584
C       -0.00465871       1.77757030       0.00794375
H       -0.66225468       2.44313916      -0.64384735
H        0.64322798       2.43503045       0.67728295
C       -1.78241447       0.00034974      -0.00472694
H       -2.45427497      -0.65498947       0.64260836
H       -2.43311707       0.67328779      -0.65473579
C       -0.91132561       0.90220522       0.91563759
C       -0.01476271      -0.02253852       1.78660255
H       -0.67934791      -0.69751639       2.42135241
H        0.63392994       0.61504881       2.47327442
C        0.01484550      -1.77751727      -0.01636693
H        0.67870853      -2.42144646      -0.68295456
H       -0.62264859      -2.45592969       0.64226336
C        1.78714474       0.01002794       0.00389507
H        2.44202412       0.67113390       0.66197326
H        2.45385902      -0.65136977      -0.64189061
C        0.91606151      -0.90478549       0.90901405
