146
Properties=species:S:1:pos:R:3 pbc="F F F"
O        5.48523783       7.48072175      -4.69718695
C        5.84696299       6.68356279      -3.82693100
C        4.88008610       5.68749071      -3.21478555
S        4.43196549       4.42190414      -4.43807551
C        3.40352559       3.40292015      -3.40350622
C        3.95863481       2.32115100      -2.71275319
C        3.15339653       1.51578431      -1.90374338
C        1.79162832       1.79162832      -1.79162832
C        1.22804034       2.86325486      -2.48198870
C        2.03514280       3.66825748      -3.29049174
C        7.24977592       6.74826338      -3.25759120
S        8.12589620       5.17222757      -3.48999914
C        9.69153831       5.58006687      -2.74276588
C       10.85860818       5.47772214      -3.50668685
C       12.10174344       5.77699219      -2.94218267
C       12.17753698       6.17109222      -1.60811669
Br      13.85668872       6.57598733      -0.84141061
C       11.02356072       6.26212486      -0.83268966
C        9.78195878       5.96094847      -1.39940435
H        3.99169123       6.23581977      -2.88519677
H        5.32790940       5.22317417      -2.33051504
H        5.01809600       2.09280795      -2.80453665
H        3.59544046       0.67608345      -1.37380097
H        0.16514878       3.07678785      -2.40450083
H        1.58631427       4.49549663      -3.83520605
H        7.17422171       7.01238664      -2.19864219
H        7.79975947       7.54225729      -3.77435111
H       10.81138136       5.16524931      -4.54789972
H       12.99941837       5.69597475      -3.54964840
H       11.07946728       6.55786595       0.21176317
H        8.89469926       6.01417918      -0.77399876
O       -5.83831231      -4.47830512      -7.34652910
C       -4.62465118      -4.58468003      -7.14812556
C       -3.93095242      -3.80318298      -6.04822696
S       -4.43191811      -4.43810488      -4.42192215
C       -3.40320884      -3.40370258      -3.40304053
C       -2.13400419      -3.84389836      -3.01463646
C       -1.32564328      -3.03682436      -2.21045659
C       -1.79162832      -1.79162832      -1.79162832
C       -3.05808491      -1.34748726      -2.16771172
C       -3.86527919      -2.15593338      -2.97267945
C       -3.76266671      -5.41935844      -8.07360534
S       -2.89745460      -6.73127239      -7.15939592
C       -2.01162012      -7.50378557      -8.49896537
C       -2.22054575      -8.86168990      -8.76078152
C       -1.52833605      -9.49696614      -9.79561611
C       -0.61897317      -8.77362919     -10.56414352
Br       0.31910675      -9.62942627     -11.96376713
C       -0.39105523      -7.42410987     -10.30321014
C       -1.08363719      -6.79176393      -9.26691049
H       -4.21013307      -2.74977789      -6.15279681
H       -2.84488284      -3.86982028      -6.16689549
H       -1.76833265      -4.81916583      -3.32794212
H       -0.34207300      -3.39066445      -1.91258743
H       -3.42904396      -0.38111089      -1.83628261
H       -4.85672484      -1.80777701      -3.25251509
H       -3.05845407      -4.75013431      -8.57666216
H       -4.40703273      -5.87760774      -8.83172740
H       -2.92418000      -9.43742068      -8.16292970
H       -1.70401696     -10.55201837      -9.98900618
H        0.32620158      -6.85896502     -10.89280662
H       -0.87637998      -5.74480378      -9.06169343
O       -4.67663278       7.47226999       5.51424376
C       -4.88752245       7.11967222       4.35026211
C       -4.05849929       6.03442121       3.68944186
S       -4.43682709       4.42139080       4.43372725
C       -3.40367602       3.40298996       3.40328598
C       -3.92722879       2.82053675       2.24477346
C       -3.12063901       2.01616518       1.43612004
C       -1.79162832       1.79162832       1.79162832
C       -1.26299894       2.36201290       2.94827205
C       -2.07116208       3.16687576       3.75585418
C       -5.91434559       7.84070633       3.50057857
S       -7.19215705       6.69453476       2.90143111
C       -8.20977906       7.82807294       1.97651906
C       -9.55912027       7.96644983       2.31744707
C      -10.38409004       8.83706401       1.59976425
C       -9.85935990       9.56395853       0.53342745
Br     -10.97196231      10.74161507      -0.43949073
C       -8.52042979       9.42328178       0.17466367
C       -7.69813703       8.55095308       0.89322150
H       -3.00145562       6.28362478       3.82762737
H       -4.25452188       6.01431531       2.61276141
H       -4.96645198       2.98177577       1.96721285
H       -3.53928613       1.56651917       0.53951957
H       -0.22981538       2.18256902       3.23405305
H       -1.65512309       3.59905838       4.66283547
H       -5.38930429       8.32436954       2.67157672
H       -6.38863691       8.61723738       4.11049358
H       -9.98058553       7.39914015       3.14480470
H      -11.42986046       8.93627507       1.87890598
H       -8.10987955       9.97968016      -0.66398965
H       -6.66231034       8.43542087       0.58514598
O        6.23771301      -4.31034947       7.11508405
C        5.00457706      -4.25999040       7.09288931
C        4.26187604      -3.53259912       5.98788720
S        4.42963562      -4.43927326       4.42303626
C        3.40312017      -3.40371465       3.40311715
C        2.04425287      -3.69691148       3.25137465
C        1.23634692      -2.88927309       2.44730422
C        1.79162832      -1.79162832       1.79162832
C        3.14648030      -1.49574423       1.93105936
C        3.95318245      -2.30445307       2.73625650
C        4.18922478      -4.83097983       8.23542589
S        3.03593639      -6.10667978       7.64550675
C        2.26671592      -6.55976832       9.18788683
C        2.33530452      -7.88840389       9.61930876
C        1.72836921      -8.27499639      10.81755271
C        1.04420292      -7.33161563      11.58092733
Br       0.22193486      -7.85085620      13.20129558
C        0.95604268      -6.00826677      11.15406579
C        1.56274747      -5.62479156       9.95477258
H        4.68699770      -2.52774896       5.89796111
H        3.20605371      -3.42133282       6.25421207
H        1.60646826      -4.55840909       3.75056325
H        0.18211727      -3.12854502       2.33466259
H        3.58561080      -0.64608681       1.41473986
H        5.01172232      -2.07424933       2.83104530
H        3.65979547      -4.00536197       8.72009310
H        4.87448994      -5.27819327       8.96368467
H        2.86214689      -8.63449543       9.02788807
H        1.79326136      -9.31058466      11.14119549
H        0.41325253      -5.27159596      11.74072157
H        1.46409574      -4.59397318       9.62480827
C       -0.00445707       0.01189536      -1.78238275
H       -0.66409135       0.67374010      -2.43557963
H        0.65740317      -0.63156657      -2.45157240
C       -0.90989263      -0.90692880      -0.91072765
C        0.90977584       0.90977584      -0.90977584
C       -0.00465871       1.77757030       0.00794375
H       -0.66225468       2.44313916      -0.64384735
H        0.64322798       2.43503045       0.67728295
C       -1.78241447       0.00034974      -0.00472694
H       -2.45427497      -0.65498947       0.64260836
H       -2.43311707       0.67328779      -0.65473579
C       -0.91132561       0.90220522       0.91563759
C       -0.01476271      -0.02253852       1.78660255
H       -0.67934791      -0.69751639       2.42135241
H        0.63392994       0.61504881       2.47327442
C        0.01484550      -1.77751727      -0.01636693
H        0.67870853      -2.42144646      -0.68295456
H       -0.62264859      -2.45592969       0.64226336
C        1.78714474       0.01002794       0.00389507
H        2.44202412       0.67113390       0.66197326
H        2.45385902      -0.65136977      -0.64189061
C        0.91606151      -0.90478549       0.90901405
