90
Properties=species:S:1:pos:R:3 pbc="F F F"
C        1.82063555       1.82063555      -1.82063555
C        1.62433164       1.38829797      -3.25692467
O        0.79478743       1.98495417      -3.94913615
C        2.40784230       0.28244349      -3.80586930
C        2.28868327      -0.24165956      -5.07923816
C        3.20420828      -1.29900653      -5.30314797
Br       3.25685936      -2.19453423      -6.96911065
C        4.01792193      -1.58699888      -4.22764485
O        4.96892949      -2.53533547      -4.19334158
C        5.72365336      -2.69935761      -3.00078800
S        3.62395056      -0.53192807      -2.92498164
H        2.85475247       1.75603596      -1.48064936
H        1.47547956       2.85038719      -1.69294367
H        1.57327876       0.12902527      -5.80521379
H        6.44950822      -3.49975039      -3.17205881
H        5.08313811      -3.00336833      -2.16691714
H        6.28367391      -1.79064625      -2.75761159
C       -1.82063555      -1.82063555      -1.82063555
C       -3.01300042      -2.25781636      -0.99873750
O       -4.05643262      -1.60247376      -1.06997138
C       -2.92102678      -3.43664743      -0.13848087
C       -3.91477474      -3.90931088       0.69782374
C       -3.51347967      -5.08063587       1.38576581
Br      -4.68712517      -5.94007444       2.59576383
C       -2.23703430      -5.50894364       1.08741004
O       -1.63232575      -6.59393456       1.59932470
C       -0.30885847      -6.89658133       1.18035604
S       -1.53325166      -4.42918097      -0.05457151
H       -1.22996982      -2.64963499      -2.21183299
H       -2.15473436      -1.20423885      -2.65983720
H       -4.88035868      -3.42586238       0.79870323
H        0.00161353      -7.81346029       1.69003012
H        0.38767883      -6.10301676       1.46865101
H       -0.26742642      -7.08613321       0.10292039
C       -1.82063555       1.82063555       1.82063555
C       -3.17431293       1.93932258       1.15591877
O       -4.07237628       1.16293612       1.49356535
C       -3.40466548       2.95849371       0.13299589
C       -4.57258421       3.13774850      -0.58407084
C       -4.47532733       4.22260002      -1.48957762
Br      -5.93681273       4.69094627      -2.59632322
C       -3.25919349       4.87262178      -1.47324737
O       -2.92392289       5.93175286      -2.22874016
C       -1.62367081       6.48608528      -2.08467234
S       -2.22891575       4.11086743      -0.32277904
H       -1.32726287       2.77913180       1.98504312
H       -1.92358116       1.31202319       2.78320606
H       -5.44804364       2.51136868      -0.45189449
H       -1.54698487       7.33957687      -2.76474509
H       -0.85259972       5.76319682      -2.36910962
H       -1.46109769       6.85716849      -1.06762694
C        1.82063555      -1.82063555       1.82063555
C        1.59301265      -1.41613397       3.26040766
O        0.76227615      -2.03826795       3.92833365
C        2.34831003      -0.30682736       3.84101770
C        2.19897397       0.19347490       5.12076281
C        3.09250924       1.26202420       5.37786469
Br       3.10205090       2.12984122       7.05922610
C        3.91908012       1.58183682       4.32132461
O        4.85426047       2.54639215       4.31906728
C        5.62592458       2.74327418       3.14243335
S        3.56495297       0.54263431       2.99468548
H        2.85904553      -1.73297643       1.49941583
H        1.49522844      -2.85369482       1.66988716
H        1.47793645      -0.20141738       5.82816400
H        6.33509458       3.55266560       3.33938767
H        4.99436673       3.05066944       2.30298964
H        6.20530908       1.84832364       2.89365380
C       -0.00445707       0.01189536      -1.78238275
H       -0.66409135       0.67374010      -2.43557963
H        0.65740317      -0.63156657      -2.45157240
C       -0.90989263      -0.90692880      -0.91072765
C        0.90977584       0.90977584      -0.90977584
C       -0.00465871       1.77757030       0.00794375
H       -0.66225468       2.44313916      -0.64384735
H        0.64322798       2.43503045       0.67728295
C       -1.78241447       0.00034974      -0.00472694
H       -2.45427497      -0.65498947       0.64260836
H       -2.43311707       0.67328779      -0.65473579
C       -0.91132561       0.90220522       0.91563759
C       -0.01476271      -0.02253852       1.78660255
H       -0.67934791      -0.69751639       2.42135241
H        0.63392994       0.61504881       2.47327442
C        0.01484550      -1.77751727      -0.01636693
H        0.67870853      -2.42144646      -0.68295456
H       -0.62264859      -2.45592969       0.64226336
C        1.78714474       0.01002794       0.00389507
H        2.44202412       0.67113390       0.66197326
H        2.45385902      -0.65136977      -0.64189061
C        0.91606151      -0.90478549       0.90901405
