77
Properties=species:S:1:pos:R:3 pbc="F F F"
C        0.00000000       0.00000000       0.00000000
C        0.91073152       0.91073152      -0.91073152
C        0.71442762       0.47839395      -2.34702065
O       -0.11511659       1.07505015      -3.03923213
C        1.49793828      -0.62746054      -2.89596527
C        1.37877925      -1.15156358      -4.16933414
C        2.29430426      -2.20891055      -4.39324395
C        3.10801791      -2.49690290      -3.31774082
O        4.05902546      -3.44523949      -3.28343756
C        4.81374934      -3.60926164      -2.09088398
S        2.71404654      -1.44183209      -2.01507762
H        1.94484844       0.84613194      -0.57074534
H        0.56557553       1.94048317      -0.78303964
H        0.66337474      -0.78087875      -4.89530977
H        5.53960420      -4.40965441      -2.26215478
H        4.17323409      -3.91327235      -1.25701311
H        5.37376988      -2.70055027      -1.84770756
C        2.33437411      -2.89044760      -5.66111684
C        2.36793261      -3.46123488      -6.72296038
Br       2.42219387      -4.38414964      -8.43987158
C       -0.91073152      -0.91073152      -0.91073152
C       -2.35251198      -0.52815045      -0.65917977
O       -2.88799310       0.29531328      -1.40648587
C       -3.08975677      -1.12846705       0.45178081
C       -4.38782842      -0.82819374       0.81947236
C       -4.81320770      -1.59634382       1.93091386
C       -3.86651908      -2.47552830       2.41319155
O       -4.02964308      -3.31606270       3.44848226
C       -2.94854609      -4.16193884       3.81511325
S       -2.43125155      -2.32908305       1.47304253
H       -0.69367665      -1.96000167      -0.70804740
H       -0.64550450      -0.69428938      -1.94930446
H       -4.99138419      -0.08964313       0.30322157
H       -3.27588914      -4.77570288       4.65948745
H       -2.08368944      -3.57716863       4.14388322
H       -2.67980291      -4.83899198       2.99786771
C       -6.13870378      -1.43692546       2.47058591
C       -7.24880675      -1.30341260       2.92256125
Br      -9.04374937      -1.08753358       3.65336715
C       -0.91073152       0.91073152       0.91073152
C       -1.46450554       2.02495904       0.05037763
O       -2.57834074       1.88274003      -0.46191509
C       -0.68661140       3.24432539      -0.16449378
C       -1.05333800       4.30906913      -0.96585732
C       -0.08441351       5.34210664      -0.94788249
C        1.00897504       5.08545763      -0.14762676
O        2.05387195       5.90813758       0.04295789
C        3.10098677       5.48924103       0.90711741
S        0.82452712       3.53443804       0.57738115
H       -0.33295697       1.26284457       1.76592418
H       -1.72842125       0.28374758       1.27692952
H       -1.97854245       4.33061507      -1.53135177
H        3.84408626       6.29123803       0.94495280
H        3.59713157       4.59338171       0.52072471
H        2.73420921       5.32903753       1.92609886
C       -0.27735049       6.54434284      -1.71664998
C       -0.43893521       7.55121565      -2.36049276
Br      -0.70020404       9.17924383      -3.40153207
C        0.91073152      -0.91073152       0.91073152
C        1.03249599      -0.24413534       2.26321088
O        0.25696708      -0.57922869       3.16296990
C        2.05357437       0.77758121       2.49044985
C        2.23570280       1.49615186       3.65699886
C        3.32178276       2.39985334       3.55670824
C        3.96992280       2.38067896       2.33961198
O        5.02969075       3.13404348       2.00157625
C        5.58181877       2.98714967       0.70070258
S        3.20484596       1.22980604       1.31225215
H        1.86822243      -1.07735253       0.41615076
H        0.40081115      -1.87236705       1.01592014
H        1.61045869       1.36626498       4.53361205
H        6.43622732       3.66580194       0.62167920
H        4.85818892       3.27151458      -0.06969950
H        5.95110386       1.96929286       0.53911618
C        3.68119447       3.24328530       4.66713417
C        3.98220178       3.94965957       5.59711589
Br       4.46890514       5.09180701       7.10081768
