153
Properties=species:S:1:pos:R:3 pbc="F F F"
C        0.00000000       0.00000000       0.00000000
C        0.88193410       0.88193410      -0.88193410
C        1.11041548       0.51949699      -2.21107154
C        1.92148673       1.31891589      -3.01831244
C        2.50654668       2.47026674      -2.47689887
C        2.26507936       2.84323584      -1.15083584
C        1.44954037       2.04107601      -0.35090691
S        3.57163203       3.46480910      -3.50099795
O        2.75347053       3.82694749      -4.64415495
O        4.16397461       4.49571789      -2.67627264
N        4.76246450       2.38295146      -3.99994498
C        5.41270272       2.89414475      -5.16708507
O        6.49061012       3.72735960      -5.17994331
N        6.85004313       4.01176644      -6.48275170
C        5.97777454       3.35262863      -7.25556289
C        6.08647629       3.44429764      -8.72974646
C        5.06200607       2.61496219      -6.46961002
Cl       3.84118691       1.58283078      -7.03540103
S        5.84009600       1.86842818      -2.81416553
O        7.00601829       2.71887207      -2.72620650
O        5.12038976       1.48204703      -1.61764197
C        6.38372899       0.32313831      -3.54552410
C        7.54343603       0.28936912      -4.32704716
C        7.95844856      -0.92260353      -4.88357168
C        7.22475380      -2.08604478      -4.64281466
Br       7.79658687      -3.72540029      -5.39056494
C        6.07777124      -2.05367987      -3.84851695
C        5.65394330      -0.84529917      -3.29333011
H        0.65835241      -0.37966342      -2.62272280
H        2.08510038       1.04138016      -4.05688885
H        2.71479901       3.73987370      -0.72870262
H        1.26972136       2.32389557       0.68367872
H        5.10228282       3.38450088      -9.20419542
H        6.70634006       2.62841760      -9.11456010
H        6.54233551       4.39256303      -9.03462463
H        8.12976536       1.18955961      -4.50422211
H        8.85870584      -0.95325305      -5.49331617
H        5.51631701      -2.96372443      -3.64902346
H        4.76824568      -0.82968613      -2.66107852
C       -0.88193410      -0.88193410      -0.88193410
C       -2.26839759      -0.71702787      -0.85555856
C       -3.07833360      -1.52573346      -1.65464800
C       -2.48637618      -2.50292311      -2.46441300
C       -1.09703712      -2.65785923      -2.50425469
C       -0.29332661      -1.84266904      -1.70552764
S       -3.52788204      -3.55744476      -3.45211228
O       -4.30163108      -2.64669795      -4.27624395
O       -2.69738924      -4.56848029      -4.07009561
N       -4.54910667      -4.27522204      -2.32103222
C       -5.71393113      -4.77843624      -2.98156518
O       -5.84372112      -6.01456797      -3.53962394
N       -7.10456255      -6.15436741      -4.08563131
C       -7.73156277      -4.99280235      -3.86160094
C       -9.12566792      -4.80854163      -4.32631084
C       -6.90004863      -4.09814344      -3.14838621
Cl      -7.31651705      -2.55148459      -2.59141709
S       -3.83821040      -5.39702455      -1.28745477
O       -3.89370097      -6.74175905      -1.81563684
O       -2.60052378      -4.86880605      -0.75074893
C       -4.99914264      -5.33193555       0.07868678
C       -6.05584348      -6.24635855       0.14234971
C       -6.94723518      -6.18825243       1.21607090
C       -6.76701280      -5.23339808       2.21888721
Br      -7.97087683      -5.16569376       3.67481906
C       -5.70208316      -4.33323464       2.16270947
C       -4.81030403      -4.38180454       1.09013433
H       -2.72152644       0.03921135      -0.21909670
H       -4.15644242      -1.38441625      -1.64251073
H       -0.63396284      -3.41342469      -3.13598781
H        0.78656646      -1.96937075      -1.72713392
H       -9.31554635      -3.76818766      -4.60724512
H       -9.82804323      -5.08689779      -3.53437673
H       -9.33582617      -5.43042641      -5.20327059
H       -6.19181890      -7.00458600      -0.62714218
H       -7.77134339      -6.89624543       1.26881987
H       -5.55401424      -3.60038600       2.95278420
H       -3.97220936      -3.68813500       1.06070629
C       -0.88193410       0.88193410       0.88193410
C       -1.98479554       1.53208343       0.32410506
C       -2.78911728       2.34456556       1.12503222
C       -2.46888076       2.50614783       2.47868370
C       -1.37448219       1.84241714       3.04225171
C       -0.57722757       1.02828972       2.23600600
S       -3.47638269       3.57496255       3.48609384
O       -4.82016782       3.03928886       3.36511629
O       -2.85585781       3.69207321       4.78803412
N       -3.40263898       5.05589927       2.68682269
C       -4.50095233       5.87509262       3.09788759
O       -4.51200088       6.71640580       4.16950635
N       -5.73752432       7.34666327       4.26037368
C       -6.46856570       6.87444559       3.24295477
C       -7.85564082       7.35592545       3.04895413
C       -5.72292491       5.95638235       2.46727102
Cl      -6.23178583       5.17901348       1.04861942
S       -1.92312577       5.85583629       2.74372766
O       -1.82562716       6.74896982       3.87649988
O       -0.84553690       4.93722169       2.43732018
C       -2.07833443       6.88882056       1.28523641
C       -2.56001291       8.19685762       1.40298179
C       -2.66807947       8.99173692       0.25960032
C       -2.28134312       8.48155398      -0.98137343
Br      -2.42059850       9.56521668      -2.52406365
C       -1.78461051       7.18231340      -1.09431558
C       -1.67868049       6.38026718       0.04302657
H       -2.22337360       1.40742656      -0.72938837
H       -3.65554908       2.83737796       0.69044235
H       -1.12586547       1.96256768       4.09494219
H        0.28062341       0.52022074       2.67034088
H       -8.49189821       6.57203501       2.62704591
H       -7.86645682       8.21368697       2.36917397
H       -8.30277917       7.66757569       3.99916831
H       -2.84677163       8.60666011       2.37011535
H       -3.04367632      10.00889943       0.34619321
H       -1.46899457       6.79191748      -2.05929600
H       -1.27481387       5.37385618      -0.04903198
C        0.88193410      -0.88193410       0.88193410
C        0.43212935      -1.26009853       2.14875614
C        1.23802189      -2.06007877       2.96061440
C        2.49611134      -2.46226829       2.49533266
C        2.94070855      -2.09808376       1.22035873
C        2.12751666      -1.30144551       0.41256112
S        3.53555794      -3.45042124       3.55145991
O        2.73692473      -4.62095734       3.86669090
O        4.82396791      -3.60159867       2.91039856
N        3.69861320      -2.50840060       4.93834713
C        4.10645854      -3.33570021       6.03177379
O        5.39167599      -3.63921197       6.36702508
N        5.40702598      -4.45960793       7.47792736
C        4.12390085      -4.65638865       7.80567656
C        3.78491763      -5.50290744       8.97269533
C        3.26440940      -3.94933748       6.93283140
Cl       1.57386014      -3.85655591       7.02900268
S        4.62718708      -1.11363888       4.78186376
O        6.02210542      -1.34673766       5.08225378
O        4.24385148      -0.38871482       3.58751246
C        3.96175219      -0.14985603       6.14078319
C        4.58650060      -0.18135459       7.39199713
C        4.06132350       0.58028872       8.43838193
C        2.93305628       1.37424555       8.22271295
Br       2.23237162       2.41059488       9.63997478
C        2.32144740       1.41793686       6.96909779
C        2.83742261       0.65549773       5.92004936
H       -0.54306710      -0.93830457       2.50617432
H        0.87816253      -2.36473378       3.94047309
H        3.91607553      -2.41292037       0.85437943
H        2.47650576      -1.00826121      -0.57482876
H        2.84087619      -6.03365048       8.81645246
H        3.69064136      -4.88648004       9.87219636
H        4.56004153      -6.25540215       9.15407949
H        5.47677663      -0.78466991       7.56210054
H        4.54288052       0.55757178       9.41346022
H        1.45209616       2.04910914       6.79862902
H        2.36604716       0.70685995       4.94045086
