101
Properties=species:S:1:pos:R:3 pbc="F F F"
C        0.00000000       0.00000000       0.00000000
O        5.10623665       0.95494469      -5.60016065
C        4.43124140       0.01960950      -5.18845948
C        3.43433601       0.15826087      -4.09897644
C        3.21037928       1.35379649      -3.53614564
C        2.29876773       1.47395808      -2.45179306
C        1.91936067       2.61501976      -1.75407298
C        1.00757782       2.22598579      -0.74182671
C        0.86712316       0.86712316      -0.86712316
O        1.63003910       0.40733391      -1.88880916
C        4.55473426      -1.36042180      -5.71708132
C        5.58229310      -1.68440769      -6.51384354
C        5.72473987      -3.01465282      -6.99435607
C        6.75962545      -3.56370619      -7.74288632
C        6.45666932      -4.92816132      -7.97379945
C        5.25061614      -5.15239263      -7.35970592
Br       4.34172350      -6.78056381      -7.33071904
O        4.80485633      -4.01675551      -6.76867739
H        2.92265553      -0.73550162      -3.75993297
H        3.73166331       2.24238612      -3.88294783
H        2.27282576       3.61756900      -1.95501581
H        0.52117296       2.85954377      -0.01387090
H        3.80901741      -2.08930841      -5.42040754
H        6.33128072      -0.94597063      -6.78850611
H        7.63922962      -3.03106144      -8.07884339
H        7.04652168      -5.65134668      -8.51874923
O       -6.39720004      -1.29647976      -3.96766221
C       -5.89137614      -0.32081254      -3.42712170
C       -4.55748606      -0.35473437      -2.77935290
C       -3.82755553      -1.47866698      -2.79409891
C       -2.57610720      -1.52722727      -2.12118440
C       -1.67169364      -2.57971983      -2.03703994
C       -0.58281733      -2.15784953      -1.23472345
C       -0.86712316      -0.86712316      -0.86712316
O       -2.05329110      -0.47781518      -1.39507589
C       -6.56833554       0.99565543      -3.33871367
C       -7.86750413       1.10435786      -3.64858268
C       -8.52975833       2.35672585      -3.53141064
C       -9.87692888       2.64925909      -3.71113579
C      -10.05883078       4.03471575      -3.47819243
C       -8.81657412       4.52811786      -3.16947318
Br      -8.43296645       6.30824570      -2.76715799
O       -7.89531776       3.53398491      -3.19544536
H       -4.21291379       0.54139724      -2.27557034
H       -4.18495846      -2.37179908      -3.30023972
H       -1.79471843      -3.54888083      -2.50181131
H        0.29299235      -2.72805145      -0.95952854
H       -5.98864643       1.84581542      -2.99728553
H       -8.43919531       0.23864267      -3.97326355
H      -10.64233317       1.93259421      -3.97727262
H      -10.98064146       4.59641448      -3.52969725
O       -4.19488743       1.19587443       6.27058014
C       -3.42427305       0.32207380       5.89296353
C       -2.66961873       0.40331983       4.61863478
C       -2.78543305       1.48250384       3.83238453
C       -2.10860596       1.53279645       2.58311646
C       -2.08574410       2.55815578       1.64455354
C       -1.29505821       2.13113596       0.54919615
C       -0.86712316       0.86712316       0.86712316
O       -1.34285585       0.50093591       2.08239040
C       -3.18023244      -0.92548693       6.65664826
C       -3.97592055      -1.24928866       7.68509706
C       -3.76809903      -2.46152105       8.39786514
C       -4.53387265      -3.01353074       9.41846367
C       -3.93039875      -4.23493280       9.80684151
C       -2.82253432      -4.37450862       9.00990373
Br      -1.62421684      -5.80220169       9.06986359
O       -2.71684376      -3.32208119       8.16201564
H       -2.05300130      -0.44285347       4.33693906
H       -3.40900665       2.32364187       4.12434874
H       -2.59417175       3.50798770       1.74325113
H       -1.07245418       2.67805295      -0.35591949
H       -2.36352945      -1.56521613       6.34180323
H       -4.80133522      -0.60527633       7.97775732
H       -5.43415585      -2.57763795       9.83049368
H       -4.26529634      -4.92210537      10.57073325
O        6.56452058      -1.48406896       3.61275245
C        6.08770121      -0.51300477       3.03860440
C        4.71143075      -0.49430184       2.48584074
C        3.91074235      -1.55932993       2.63024914
C        2.61372529      -1.56280693       2.04798665
C        1.63707957      -2.55082790       2.10054594
C        0.52408442      -2.10651511       1.34479078
C        0.86712316      -0.86712316       0.86712316
O        2.11160022      -0.52957473       1.28500722
C        6.84328804       0.74249557       2.81060131
C        8.16572812       0.77805292       3.02405374
C        8.90031567       1.96889236       2.77301982
C       10.27349433       2.17521412       2.84052538
C       10.53065629       3.52526706       2.49691822
C        9.30530271       4.08488407       2.23751080
Br       9.01397860       5.85699424       1.73489438
O        8.32372438       3.16353352       2.39658734
H        4.39239209       0.38848443       1.94317923
H        4.24292016      -2.43989546       3.17418164
H        1.72794312      -3.49297893       2.62448852
H       -0.40549529      -2.62944625       1.17063668
H        6.29886029       1.60731963       2.44857588
H        8.69994987      -0.10279888       3.37106745
H       11.00627541       1.42484028       3.10557645
H       11.48936369       4.02143221       2.44599275
