162
Properties=species:S:1:pos:R:3 pbc="F F F"
C        1.78175498       1.78175498      -1.78175498
C        3.12467604       1.96753751      -1.57030972
C        3.68664524       2.83931339      -2.55536211
C        2.74388126       3.26408332      -3.47147555
S        1.19246157       2.62493656      -3.12529569
C        3.04198674       4.15847290      -4.64396815
N        2.07928032       4.47812266      -5.51423639
S        2.79173733       5.38554044      -6.70817573
C        4.34051551       5.32289657      -5.98769513
N        4.33693605       4.65279455      -4.85633181
N        5.45066555       5.93702796      -6.51070354
C        5.54223653       6.47201052      -7.77849836
O        4.65587676       6.42023013      -8.62323232
C        6.82065919       7.10281631      -8.06398230
O        7.73477205       7.27134300      -7.05725450
C        8.79757021       7.93998039      -7.58643569
C        9.93564523       8.33839775      -6.88629937
C       10.91028884       9.03202542      -7.61467099
C       10.73536312       9.29487016      -8.97460769
C        9.58565820       8.87849277      -9.65677933
C        8.59157764       8.18560982      -8.93860867
C        7.31697871       7.62888513      -9.25207421
C        6.63591321       7.62603173     -10.57314902
H        3.68393728       1.50896291      -0.76431060
H        4.73117988       3.12573730      -2.59452489
H        6.28032511       5.92317711      -5.93292891
H       10.05322876       8.12895541      -5.82995370
H       11.81059756       9.36802250      -7.10484092
H        9.45602863       9.09119901     -10.71359614
H        6.27967861       6.62092952     -10.82220039
H        7.31098061       7.94208694     -11.37416226
H        5.77962034       8.30752255     -10.56172716
C       11.75324561      10.01584374      -9.69412999
C       12.60572219      10.61965911     -10.29672992
Br      13.98410472      11.59597751     -11.27108303
C       -1.78175498      -1.78175498      -1.78175498
C       -2.72911201      -1.28966708      -2.64374417
C       -3.39476744      -2.34828222      -3.33827108
C       -2.91247204      -3.59108643      -2.97588167
S       -1.67938710      -3.47075700      -1.79254971
C       -3.39087933      -4.89149859      -3.56204987
N       -2.83114413      -6.04766468      -3.19283056
S       -3.53984169      -7.23893680      -4.10667501
C       -4.57131661      -6.15144266      -4.92834794
N       -4.41441786      -4.91130318      -4.52034137
N       -5.48652650      -6.53614597      -5.87572458
C       -5.54352629      -7.77941342      -6.46980571
O       -4.74688209      -8.68779829      -6.26465884
C       -6.64000095      -7.93580987      -7.41164698
O       -7.59398453      -6.95736933      -7.51201570
C       -8.52336969      -7.39189737      -8.40871922
C       -9.67940285      -6.70450190      -8.77643759
C      -10.51591292      -7.33487129      -9.70620104
C      -10.18707180      -8.58560891     -10.23216026
C       -9.01654957      -9.25301120      -9.85136952
C       -8.16669101      -8.63716238      -8.91194273
C       -6.93750741      -8.98284895      -8.27758168
C       -6.13845657     -10.22021616      -8.47642123
H       -2.93979367      -0.23635960      -2.78105752
H       -4.17598066      -2.20062513      -4.07483627
H       -6.11579967      -5.81620228      -6.20442919
H       -9.92073321      -5.73595148      -8.35545318
H      -11.43239156      -6.83651336     -10.01455606
H       -8.77098731     -10.22757670     -10.26225977
H       -5.08688680      -9.97594486      -8.65997686
H       -6.49579601     -10.79580947      -9.33562433
H       -6.19926474     -10.85945421      -7.59015110
C      -11.07124342      -9.21026675     -11.18170917
C      -11.81173715      -9.73341768     -11.97695638
Br     -13.00905289     -10.57930851     -13.26280386
C       -1.78175498       1.78175498       1.78175498
C       -1.31406223       2.48594945       2.86251159
C       -2.36546535       3.22349178       3.49236361
C       -3.57728737       3.05001641       2.85213636
S       -3.43971066       1.98884652       1.51413663
C       -4.85791377       3.72564149       3.26087253
N       -5.97619391       3.54354065       2.55190480
S       -7.14177348       4.50833283       3.23534719
C       -6.09853813       5.09865112       4.45391796
N       -4.89529671       4.57396503       4.37680068
N       -6.48591933       5.98716865       5.42530906
C       -7.66277617       6.70612703       5.42384222
O       -8.49361221       6.68246338       4.52326363
C       -7.84491512       7.54600910       6.59653357
O       -6.97254507       7.44271788       7.64810661
C       -7.41579050       8.28521109       8.62298469
C       -6.82700219       8.45836132       9.87497883
C       -7.45040014       9.36436026      10.74222485
C       -8.59885340      10.05505521      10.35093237
C       -9.16756886       9.86820995       9.08515148
C       -8.55801753       8.95558025       8.20219836
C       -8.82726538       8.48831196       6.88236071
C       -9.94309733       8.90068349       5.99131313
H       -0.28201819       2.48468425       3.19050835
H       -2.23251463       3.85811692       4.36081052
H       -5.81072357       6.17040961       6.15529796
H       -5.93754859       7.91128118      10.16330810
H       -7.02803005       9.52341787      11.73201306
H      -10.06350579      10.40639080       8.79092719
H       -9.56735211       9.15960151       4.99585490
H      -10.46648383       9.77840279       6.38234318
H      -10.66989976       8.08867956       5.89029073
C       -9.21989601      10.97526213      11.26806119
C       -9.74001920      11.74593543      12.03615659
Br     -10.58101441      12.99204897      13.27810187
C        1.78175498      -1.78175498       1.78175498
C        1.43607725      -3.04939382       2.17705220
C        2.45694879      -3.63248267       2.99188928
C        3.53132328      -2.78173624       3.16638061
S        3.29131948      -1.28685580       2.36451853
C        4.77171920      -3.12885409       3.94385450
N        5.78883871      -2.26494540       4.01785526
S        7.00160141      -3.02065502       4.86319708
C        6.09599741      -4.45002651       5.10508328
N        4.89132989      -4.37072498       4.58400754
N        6.56009864      -5.53892454       5.79937387
C        7.86930284      -5.74016528       6.18327730
O        8.80031498      -4.99301969       5.90600455
C        8.08178530      -6.95933175       6.94634074
O        7.00444494      -7.69696550       7.36195911
C        7.48797360      -8.73354270       8.10246998
C        6.71662282      -9.70591815       8.73780137
C        7.41012922     -10.68054458       9.46631145
C        8.80449561     -10.66590076       9.53444460
C        9.55710994      -9.68178543       8.88203492
C        8.87610198      -8.68938699       8.15030716
C        9.26207016      -7.54832205       7.38754584
C       10.64297451      -7.06326810       7.12885134
H        0.51197105      -3.54271174       1.90252799
H        2.40794353      -4.62950321       3.41399532
H        5.88921234      -6.27551395       5.97170485
H        5.63502963      -9.69996008       8.67714817
H        6.84610007     -11.45336310       9.98399781
H       10.64108930      -9.67557313       8.94416135
H       10.79124574      -6.87041074       6.06115203
H       11.39183611      -7.79964324       7.43575045
H       10.83102726      -6.13707892       7.68076386
C        9.48783998     -11.67845301      10.29692635
C       10.06014089     -12.52646551      10.93550482
Br      10.98550305     -13.89763001      11.96803220
C       -0.00445707       0.01189536      -1.78238275
H       -0.66409135       0.67374010      -2.43557963
H        0.65740317      -0.63156657      -2.45157240
C       -0.90989263      -0.90692880      -0.91072765
C        0.90977584       0.90977584      -0.90977584
C       -0.00465871       1.77757030       0.00794375
H       -0.66225468       2.44313916      -0.64384735
H        0.64322798       2.43503045       0.67728295
C       -1.78241447       0.00034974      -0.00472694
H       -2.45427497      -0.65498947       0.64260836
H       -2.43311707       0.67328779      -0.65473579
C       -0.91132561       0.90220522       0.91563759
C       -0.01476271      -0.02253852       1.78660255
H       -0.67934791      -0.69751639       2.42135241
H        0.63392994       0.61504881       2.47327442
C        0.01484550      -1.77751727      -0.01636693
H        0.67870853      -2.42144646      -0.68295456
H       -0.62264859      -2.45592969       0.64226336
C        1.78714474       0.01002794       0.00389507
H        2.44202412       0.67113390       0.66197326
H        2.45385902      -0.65136977      -0.64189061
C        0.91606151      -0.90478549       0.90901405
