174
Properties=species:S:1:pos:R:3 pbc="F F F"
O        8.51144778       3.52220780      -7.85711310
C        8.16519083       4.28844086      -6.95954291
C        7.61680401       5.67464614      -7.28287042
S        5.80614291       5.62334993      -7.49372560
C        5.30599844       5.26310946      -5.87982431
N        5.99507896       5.51727719      -4.79368203
N        5.35996298       4.89435436      -3.75206565
C        4.29139788       4.26470398      -4.21869210
C        3.41077836       3.41252363      -3.41605303
C        2.86600745       2.21882316      -3.91272323
C        2.05108672       1.41530456      -3.10707062
C        1.79135410       1.79135410      -1.79135410
C        2.34187060       2.95961716      -1.27234923
C        3.15083017       3.76275964      -2.08212796
N        4.17171909       4.57193971      -5.55948954
C        3.06459525       4.28439249      -6.43544607
N        8.19102517       4.02077856      -5.60117181
C        8.53065260       2.81663135      -4.95761879
C        9.06364354       1.70235778      -5.60620614
C        9.32758712       0.52862672      -4.89021866
C        9.06407203       0.47190439      -3.52343705
Br       9.39847161      -1.12150296      -2.56437050
C        8.54861934       1.58120024      -2.86112391
C        8.28566728       2.75008064      -3.57869090
H        8.07073372       6.01075956      -8.22100877
H        7.90149299       6.39853971      -6.51231593
H        3.08786271       1.87874339      -4.92116490
H        1.63840852       0.49360427      -3.51025452
H        2.15829406       3.25126471      -0.24139268
H        3.58838588       4.66730994      -1.66140893
H        2.90005589       5.13521856      -7.10201849
H        2.15417552       4.13763127      -5.84998753
H        3.29997671       3.38674544      -7.01176479
H        7.74361114       4.71498925      -5.00017243
H        9.28000889       1.71207842      -6.66992407
H        9.73245949      -0.33332575      -5.41366629
H        8.33895972       1.54903142      -1.79554552
H        7.86796335       3.60403839      -3.04819957
O       -7.87722111      -3.51964267      -8.49390490
C       -7.75969599      -4.18636738      -7.46711123
C       -7.37984004      -5.66227597      -7.53220456
S       -5.56856576      -5.86893764      -7.48571503
C       -5.22798096      -5.34626345      -5.87468780
N       -6.07694664      -5.35357441      -4.87551712
N       -5.49448756      -4.67207806      -3.83981736
C       -4.29667122      -4.25475639      -4.22336636
C       -3.41036833      -3.41324881      -3.41573788
C       -2.64202695      -2.38092263      -3.97460426
C       -1.82758225      -1.57852562      -3.16735403
C       -1.79135410      -1.79135410      -1.79135410
C       -2.56448150      -2.79478315      -1.21457234
C       -3.37250349      -3.59814974      -2.02506455
N       -4.05537534      -4.76381571      -5.48395729
C       -2.81755177      -4.74591800      -6.22096403
N       -7.91674710      -3.72538655      -6.17084189
C       -8.15790180      -2.40837944      -5.73862150
C       -8.43996330      -1.34086264      -6.59138153
C       -8.62025713      -0.05279526      -6.07338011
C       -8.52458939       0.16607981      -4.70090389
Br      -8.74424867       1.90985420      -4.00694467
C       -8.26074938      -0.89238385      -3.83781027
C       -8.08053483      -2.17579193      -4.35811205
H       -7.75621988      -6.07005148      -8.47623068
H       -7.85972345      -6.22665438      -6.72597080
H       -2.68471503      -2.16404158      -5.03901439
H       -1.23966591      -0.78325744      -3.61934395
H       -2.55523867      -2.95609330      -0.13961947
H       -3.98457599      -4.37094947      -1.56157929
H       -2.69467954      -5.69745150      -6.74516189
H       -1.97605443      -4.63181900      -5.53392090
H       -2.84759895      -3.91795742      -6.93293057
H       -7.65243892      -4.37664640      -5.42968750
H       -8.52055103      -1.47599868      -7.66546167
H       -8.82843642       0.76893923      -6.75330284
H       -8.18375530      -0.73410386      -2.76567751
H       -7.85949344      -2.99027395      -3.67043392
O       -3.73273360       9.10628781       7.05174727
C       -4.22616150       7.98922069       7.19779241
C       -5.73093370       7.77584435       7.06754253
S       -6.18552070       7.39455475       5.34314299
C       -5.45263197       5.84149373       5.15480651
N       -5.16854632       5.00974091       6.12775094
N       -4.41290536       3.99963024       5.59384739
C       -4.24341147       4.23123594       4.30014656
C       -3.41408456       3.41518877       3.41008169
C       -2.61271085       3.97893596       2.40590704
C       -1.81122910       3.16977034       1.59246245
C       -1.79135410       1.79135410       1.79135410
C       -2.56083445       1.21511122       2.79789133
C       -3.36473490       2.02621242       3.60477045
N       -4.98761588       5.34621090       3.96932155
C       -5.27308342       5.85813856       2.65321183
N       -3.53494034       6.81829072       7.45974447
C       -2.14302175       6.62737065       7.53451033
C       -1.20568870       7.66030649       7.50621228
C        0.16374584       7.37129048       7.53888786
C        0.59538235       6.04845647       7.60633935
Br       2.44455748       5.66018495       7.62571167
C       -0.32875171       5.00982969       7.65236210
C       -1.69402078       5.30177325       7.61864478
H       -6.23388314       8.70116875       7.36745016
H       -6.07578911       6.98956211       7.74699741
H       -2.57503094       5.05522114       2.25751891
H       -1.19693176       3.62565828       0.81967726
H       -2.53773091       0.14220639       2.97101415
H       -3.95170165       1.56643675       4.39896634
H       -6.30716488       6.21138678       2.61874128
H       -5.16692533       5.06244286       1.91242613
H       -4.58182957       6.67668340       2.43997397
H       -4.08272245       5.95714315       7.41890722
H       -1.50740779       8.70171261       7.45289098
H        0.88000907       8.18780737       7.50500173
H       -0.00427822       3.97426410       7.70499435
H       -2.40375467       4.47656524       7.63988139
O        4.85084967      -9.75094504       5.28897397
C        4.84007347      -8.67981191       5.89328921
C        6.13722014      -8.04834183       6.38875860
S        6.85219859      -6.95254254       5.11847730
C        5.67408003      -5.68939513       5.08545704
N        4.85932448      -5.38127128       6.06544241
N        3.95175737      -4.48060909       5.57401653
C        4.22409369      -4.25351232       4.29718796
C        3.41553808      -3.41359056       3.41022638
C        3.17143793      -3.75470698       2.07140894
C        2.37024247      -2.94195351       1.26126591
C        1.79135410      -1.79135410       1.79135410
C        2.00177864      -1.44829781       3.12376055
C        2.80756110      -2.25972023       3.92843644
N        5.38607846      -4.93123358       3.98583629
C        6.17355651      -4.82700669       2.78387060
N        3.72265865      -7.91290748       6.17740940
C        2.39129329      -8.13385240       5.77975705
C        1.94436040      -9.28940911       5.13843796
C        0.60780238      -9.40145053       4.73717959
C       -0.28342607      -8.35942011       4.98341942
Br      -2.08100620      -8.50334580       4.41899955
C        0.14500377      -7.20878380       5.63715592
C        1.47920065      -7.10005640       6.03518176
H        6.84923932      -8.85295607       6.60030665
H        5.97681203      -7.50806093       7.32747567
H        3.57419448      -4.66955830       1.64401822
H        2.19268921      -3.22349415       0.22608395
H        1.53960344      -0.56147590       3.54987210
H        2.95371214      -1.98976112       4.97363150
H        7.23524561      -4.85918261       3.04286471
H        5.97844399      -3.87147977       2.29187057
H        5.91518474      -5.65877155       2.12453065
H        3.90371245      -6.98676658       6.56829379
H        2.61207378     -10.11961948       4.93031812
H        0.27952927     -10.30419528       4.22907548
H       -0.54066428      -6.38947118       5.83472978
H        1.80174450      -6.18659353       6.53186327
C       -0.00445707       0.01189536      -1.78238275
H       -0.66409135       0.67374010      -2.43557963
H        0.65740317      -0.63156657      -2.45157240
C       -0.90989263      -0.90692880      -0.91072765
C        0.90977584       0.90977584      -0.90977584
C       -0.00465871       1.77757030       0.00794375
H       -0.66225468       2.44313916      -0.64384735
H        0.64322798       2.43503045       0.67728295
C       -1.78241447       0.00034974      -0.00472694
H       -2.45427497      -0.65498947       0.64260836
H       -2.43311707       0.67328779      -0.65473579
C       -0.91132561       0.90220522       0.91563759
C       -0.01476271      -0.02253852       1.78660255
H       -0.67934791      -0.69751639       2.42135241
H        0.63392994       0.61504881       2.47327442
C        0.01484550      -1.77751727      -0.01636693
H        0.67870853      -2.42144646      -0.68295456
H       -0.62264859      -2.45592969       0.64226336
C        1.78714474       0.01002794       0.00389507
H        2.44202412       0.67113390       0.66197326
H        2.45385902      -0.65136977      -0.64189061
C        0.91606151      -0.90478549       0.90901405
