182
Properties=species:S:1:pos:R:3 pbc="F F F"
O        8.51144778       3.52220780      -7.85711310
C        8.16519083       4.28844086      -6.95954291
C        7.61680401       5.67464614      -7.28287042
S        5.80614291       5.62334993      -7.49372560
C        5.30599844       5.26310946      -5.87982431
N        5.99507896       5.51727719      -4.79368203
N        5.35996298       4.89435436      -3.75206565
C        4.29139788       4.26470398      -4.21869210
C        3.41077836       3.41252363      -3.41605303
C        2.86600745       2.21882316      -3.91272323
C        2.05108672       1.41530456      -3.10707062
C        1.79135410       1.79135410      -1.79135410
C        2.34187060       2.95961716      -1.27234923
C        3.15083017       3.76275964      -2.08212796
N        4.17171909       4.57193971      -5.55948954
C        3.06459525       4.28439249      -6.43544607
N        8.19102517       4.02077856      -5.60117181
C        8.53065260       2.81663135      -4.95761879
C        9.06364354       1.70235778      -5.60620614
C        9.32758712       0.52862672      -4.89021866
C        9.06407203       0.47190439      -3.52343705
C        8.54861934       1.58120024      -2.86112391
C        8.28566728       2.75008064      -3.57869090
H        8.07073372       6.01075956      -8.22100877
H        7.90149299       6.39853971      -6.51231593
H        3.08786271       1.87874339      -4.92116490
H        1.63840852       0.49360427      -3.51025452
H        2.15829406       3.25126471      -0.24139268
H        3.58838588       4.66730994      -1.66140893
H        2.90005589       5.13521856      -7.10201849
H        2.15417552       4.13763127      -5.84998753
H        3.29997671       3.38674544      -7.01176479
H        7.74361114       4.71498925      -5.00017243
H        9.28000889       1.71207842      -6.66992407
H        9.73245949      -0.33332575      -5.41366629
H        8.33895972       1.54903142      -1.79554552
H        7.86796335       3.60403839      -3.04819957
C        9.31890693      -0.74237886      -2.79256403
C        9.53233116      -1.75934108      -2.18045788
Br       9.87742009      -3.40368298      -1.19073400
O       -8.95322348      -3.65083982      -7.28670538
C       -8.42763609      -4.46072624      -6.52481227
C       -7.77959006      -5.73293776      -7.06179276
S       -6.02073944      -5.45049035      -7.45198864
C       -5.37696852      -5.20409774      -5.86786594
N       -5.90537928      -5.64773838      -4.75292051
N       -5.22187498      -5.06684114      -3.71766687
C       -4.28573898      -4.27257215      -4.21648284
C       -3.41120876      -3.41195514      -3.41619112
C       -3.05449208      -2.11810702      -3.82495475
C       -2.23946278      -1.31348804      -3.02051108
C       -1.79135410      -1.79135410      -1.79135410
C       -2.15379640      -3.06305777      -1.35698283
C       -2.96345444      -3.86618609      -2.16607724
N       -4.29107296      -4.42308701      -5.58898836
C       -3.32880612      -3.91981847      -6.53580922
N       -8.32345731      -4.34024737      -5.14927085
C       -8.70927537      -3.25690012      -4.33872725
C       -9.42656891      -2.15068944      -4.79494911
C       -9.72607203      -1.09612941      -3.92423106
C       -9.31320692      -1.15135219      -2.59485435
C       -8.61216337      -2.25610291      -2.12267721
C       -8.31432606      -3.30582240      -2.99429035
H       -8.30187467      -6.02024942      -7.98037795
H       -7.89638355      -6.56096442      -6.35500066
H       -3.42583209      -1.70326136      -4.75867755
H       -1.97417344      -0.31334029      -3.35475357
H       -1.82268381      -3.43683422      -0.39143341
H       -3.25306495      -4.85409581      -1.80994399
H       -3.15526964      -4.67205510      -7.30996820
H       -2.37682845      -3.73004507      -6.03492081
H       -3.72126117      -3.00059444      -6.97663133
H       -7.73979650      -5.03649280      -4.68248353
H       -9.76260226      -2.07501399      -5.82439513
H      -10.27612206      -0.23729881      -4.29937915
H       -8.28486742      -2.31057387      -1.08809538
H       -7.75161360      -4.15599890      -2.61258880
C       -9.60619391      -0.05722216      -1.70567603
C       -9.85157052       0.85911175      -0.96098919
Br     -10.24832374       2.34074617       0.24310645
O       -6.03115735       9.59116296       4.26844837
C       -5.62065992       8.73850532       5.05400935
C       -6.58116343       8.00691966       5.98623748
S       -7.23062357       6.49782590       5.19476897
C       -5.79770269       5.53605824       5.11517128
N       -4.74935512       5.66460714       5.89207590
N       -3.75898355       4.87136124       5.37603820
C       -4.21685598       4.27080671       4.28713127
C       -3.41611334       3.41232318       3.41091851
C       -3.54614767       3.43721559       2.01419059
C       -2.74377697       2.62278885       1.20689608
C       -1.79135410       1.79135410       1.79135410
C       -1.63032295       1.76981481       3.17369924
C       -2.43779139       2.58063603       3.97729035
N       -5.55289215       4.59386756       4.15638862
C       -6.51378819       4.02400568       3.24663994
N       -4.30914077       8.31512055       5.18871422
C       -3.19009616       8.69137150       4.42343507
C       -3.19780300       9.70720167       3.46720280
C       -2.04637691       9.98074410       2.71931149
C       -0.88485865       9.24178504       2.93276977
C       -0.85843110       8.23757889       3.89493350
C       -2.00914334       7.96680824       4.63848723
H       -7.41890514       8.67672285       6.20687406
H       -6.09891911       7.77255261       6.94087691
H       -4.25031470       4.10845777       1.52899853
H       -2.85949074       2.65655714       0.12621943
H       -0.87757210       1.13678610       3.63659325
H       -2.29339142       2.56678070       5.05693262
H       -7.47195376       3.90565939       3.75967977
H       -6.18204163       3.03397834       2.92577436
H       -6.61932509       4.69110285       2.38805900
H       -4.16072144       7.50508448       5.79296690
H       -4.08565060      10.30146502       3.27489576
H       -2.07355499      10.76824981       1.97099523
H        0.04140300       7.65452341       4.07041625
H       -1.97610097       7.16738779       5.37671254
C        0.29277112       9.51239360       2.14946962
C        1.27903606       9.73902827       1.49345575
Br       2.87374305      10.10547736       0.43273680
O        6.56227666      -9.37506624       3.95342578
C        5.99465330      -8.64988924       4.76863205
C        6.78351479      -7.93180985       5.85899593
S        7.34508025      -6.29524962       5.28288857
C        5.83443006      -5.46829839       5.14620376
N        4.73701450      -5.77342304       5.79560063
N        3.72269386      -5.02711932       5.25656981
C        4.21585650      -4.27752136       4.28141612
C        3.41620761      -3.41182490       3.41132251
C        3.67785006      -3.28048575       2.03921804
C        2.87469699      -2.46566885       1.23309606
C        1.79135410      -1.79135410       1.79135410
C        1.50070278      -1.92742427       3.14570995
C        2.30887827      -2.73781361       3.94902589
N        5.58440068      -4.45933756       4.25941009
C        6.56215291      -3.71165820       3.51062269
N        4.63968553      -8.36684339       4.80644662
C        3.64164761      -8.76502205       3.89823308
C        3.84311754      -9.67178754       2.85730239
C        2.80081151      -9.97306616       1.97255484
C        1.55453878      -9.37162527       2.13324942
C        1.33517365      -8.47872846       3.17704138
C        2.37746292      -8.17981456       4.05716133
H        7.66153141      -8.53968265       6.10128798
H        6.19274874      -7.84303218       6.77656770
H        4.48958574      -3.82954710       1.56863815
H        3.09358641      -2.37700776       0.17167313
H        0.64687083      -1.41844153       3.58563908
H        2.06372847      -2.84876414       5.00461213
H        7.45096857      -3.55791087       4.12841349
H        6.16159035      -2.72913895       3.25106503
H        6.81547498      -4.27400534       2.60900662
H        4.35290211      -7.64074994       5.46512077
H        4.80149858     -10.15764699       2.70286581
H        2.97864977     -10.67332080       1.16082945
H        0.36764640      -8.00335354       3.31253673
H        2.19353151      -7.46726855       4.85940125
C        0.48928456      -9.66879613       1.21101142
C       -0.40286585      -9.91767672       0.43863709
Br      -1.84539761     -10.32009559      -0.81022687
C       -0.00445707       0.01189536      -1.78238275
H       -0.66409135       0.67374010      -2.43557963
H        0.65740317      -0.63156657      -2.45157240
C       -0.90989263      -0.90692880      -0.91072765
C        0.90977584       0.90977584      -0.90977584
C       -0.00465871       1.77757030       0.00794375
H       -0.66225468       2.44313916      -0.64384735
H        0.64322798       2.43503045       0.67728295
C       -1.78241447       0.00034974      -0.00472694
H       -2.45427497      -0.65498947       0.64260836
H       -2.43311707       0.67328779      -0.65473579
C       -0.91132561       0.90220522       0.91563759
C       -0.01476271      -0.02253852       1.78660255
H       -0.67934791      -0.69751639       2.42135241
H        0.63392994       0.61504881       2.47327442
C        0.01484550      -1.77751727      -0.01636693
H        0.67870853      -2.42144646      -0.68295456
H       -0.62264859      -2.45592969       0.64226336
C        1.78714474       0.01002794       0.00389507
H        2.44202412       0.67113390       0.66197326
H        2.45385902      -0.65136977      -0.64189061
C        0.91606151      -0.90478549       0.90901405
