161
Properties=species:S:1:pos:R:3 pbc="F F F"
C        0.00000000       0.00000000       0.00000000
O        7.60154376       2.61230377      -6.94720907
C        7.25528681       3.37853683      -6.04963888
C        6.70689999       4.76474211      -6.37296640
S        4.89623888       4.71344591      -6.58382157
C        4.39609442       4.35320544      -4.96992028
N        5.08517493       4.60737316      -3.88377800
N        4.45005895       3.98445034      -2.84216162
C        3.38149386       3.35479996      -3.30878808
C        2.50087434       2.50261961      -2.50614900
C        1.95610343       1.30891914      -3.00281921
C        1.14118269       0.50540054      -2.19716659
C        0.88145007       0.88145007      -0.88145007
C        1.43196658       2.04971313      -0.36244521
C        2.24092615       2.85285562      -1.17222393
N        3.26181506       3.66203568      -4.64958552
C        2.15469122       3.37448847      -5.52554204
N        7.28112115       3.11087453      -4.69126778
C        7.62074857       1.90672733      -4.04771476
C        8.15373952       0.79245376      -4.69630212
C        8.41768310      -0.38127730      -3.98031464
C        8.15416800      -0.43799964      -2.61353302
C        7.63871532       0.67129622      -1.95121989
C        7.37576325       1.84017661      -2.66878687
H        7.16082969       5.10085553      -7.31110475
H        6.99158897       5.48863569      -5.60241190
H        2.17795868       0.96883937      -4.01126087
H        0.72850449      -0.41629976      -2.60035049
H        1.24839003       2.34136068       0.66851134
H        2.67848185       3.75740592      -0.75150490
H        1.99015187       4.22531453      -6.19211446
H        1.24427150       3.22772725      -4.94008351
H        2.39007268       2.47684142      -6.10186076
H        6.83370712       3.80508523      -4.09026840
H        8.37010486       0.80217440      -5.76002005
H        8.82255546      -1.24322977      -4.50376226
H        7.42905570       0.63912740      -0.88564150
H        6.95805932       2.69413436      -2.13829554
C        8.40900291      -1.65228288      -1.88266001
C        8.62242714      -2.66924510      -1.27055386
Br       8.96751607      -4.31358700      -0.28082998
O       -7.71682305      -2.63343529      -6.81079827
C       -7.32573176      -3.41357489      -5.94415588
C       -6.74960107      -4.77508348      -6.31992395
S       -4.94742265      -4.66851482      -6.57756889
C       -4.41298387      -4.33791347      -4.96832279
N       -5.06497120      -4.63980553      -3.87154936
N       -4.41837640      -4.02772893      -2.83056558
C       -3.38021185      -3.35676106      -3.30810898
C       -2.50097246      -2.50247747      -2.50619302
C       -2.00210471      -1.28144223      -2.98429484
C       -1.18713378      -0.47766777      -2.17894827
C       -0.88145007      -0.88145007      -0.88145007
C       -1.38612568      -2.07782063      -0.38017861
C       -2.19526306      -2.88094550      -1.18979713
N       -3.28920407      -3.62468329      -4.65954890
C       -2.21460440      -3.28357908      -5.55653825
N       -7.32142495      -3.18309153      -4.57874699
C       -7.67530156      -2.00633104      -3.89355806
C       -8.25545260      -0.89017839      -4.49686440
C       -8.53090124       0.25633052      -3.74214971
C       -8.23159346       0.28374291      -2.38185084
C       -7.66872415      -0.82828340      -1.76422387
C       -7.39443917      -1.96993023      -2.52035733
H       -7.21996225      -5.09835301      -7.25447472
H       -6.99360867      -5.52683418      -5.56219370
H       -2.26054754      -0.92076952      -3.97674186
H       -0.81043342       0.46544603      -2.56756785
H       -1.16660908      -2.39174812       0.63711783
H       -2.59679955      -3.80807271      -0.78252041
H       -2.04575413      -4.11146671      -6.25036002
H       -1.29270800      -3.12758019      -4.99179406
H       -2.48959654      -2.37765843      -6.10151990
H       -6.83931110      -3.88056649      -4.00918316
H       -8.50058513      -0.87742289      -5.55429129
H       -8.97285619       1.12052056      -4.23075232
H       -7.43084085      -0.81884085      -0.70414290
H       -6.93968230      -2.82596744      -2.02483949
C       -8.49861458       1.47062669      -1.61139213
C       -8.72224477       2.46464185      -0.96613296
Br      -9.08383588       4.07188030       0.07719653
O       -3.90127584       4.42302992       8.83675085
C       -4.60156915       4.23937570       7.84251767
C       -5.29166419       5.40754746       7.14539685
S       -4.21698989       6.12046427       5.85605220
C       -4.18022163       4.82266025       4.71633826
N       -5.09253546       3.88879907       4.59499157
N       -4.59609652       2.94178278       3.73879161
C       -3.38367947       3.31027902       3.35112340
C       -2.50056591       2.50593860       2.50313843
C       -1.11666552       2.43018724       2.72098901
C       -0.30773214       1.62861897       1.90739871
C       -0.88145007       0.88145007       0.88145007
C       -2.25558989       0.92428907       0.66424596
C       -3.05973268       1.73078197       1.47549105
N       -3.13448240       4.56272411       3.87622975
C       -2.03940953       5.44690135       3.56841085
N       -4.83720163       3.02412075       7.22194108
C       -4.27988579       1.76870784       7.52659704
C       -3.48583921       1.51204171       8.64461448
C       -2.93491647       0.24018405       8.84161991
C       -3.18383991      -0.77703188       7.92289336
C       -3.98771888      -0.53934817       6.81286070
C       -4.53487013       0.73083984       6.61901677
H       -5.49949700       6.17780806       7.89548491
H       -6.25558745       5.10034023       6.72670888
H       -0.64849027       2.96791688       3.54165177
H        0.76282887       1.58302076       2.09236335
H       -2.71343362       0.33088453      -0.12307877
H       -4.13572315       1.74557835       1.30609117
H       -2.40621053       6.47593353       3.52543679
H       -1.62394593       5.19908267       2.58905365
H       -1.27897926       5.34391595       4.34587965
H       -5.33281996       3.06642144       6.32981935
H       -3.27117379       2.28172717       9.37939834
H       -2.30980709       0.06101811       9.71226275
H       -4.18897457      -1.32461609       6.08946611
H       -5.14909815       0.90429244       5.73709864
C       -2.60101353      -2.07932491       8.11769141
C       -2.11289644      -3.16999533       8.28083477
Br      -1.32365239      -4.93351714       8.54462379
O        4.99637000      -3.44437068       8.72031593
C        5.45676919      -3.63140610       7.59528723
C        5.71843789      -5.04390994       7.08226067
S        4.24658591      -5.71031770       6.23660275
C        4.18607197      -4.68753042       4.84561774
N        5.20441151      -4.04409993       4.32781466
N        4.70780594      -3.18872049       3.38014449
C        3.38996413      -3.32017696       3.33494081
C        2.50015181      -2.50517751       2.50431362
C        1.25175789      -2.05577734       2.96030654
C        0.44027404      -1.25474586       2.14872992
C        0.88145007      -0.88145007       0.88145007
C        2.12707535      -1.29706759       0.41998198
C        2.93248520      -2.10207347       1.23144702
N        3.03842602      -4.34922332       4.18578692
C        1.75192912      -4.98400022       4.31879239
N        5.76509722      -2.65286754       6.66529870
C        5.55142740      -1.26536765       6.75839561
C        5.11690142      -0.61306082       7.91253315
C        4.88640229       0.76773950       7.89805764
C        5.09688800       1.49719386       6.73000725
C        5.54636252       0.86209484       5.57696374
C        5.77436415      -0.51559372       5.59476887
H        5.94905762      -5.68179240       7.94193996
H        6.59280319      -5.06621652       6.42361684
H        0.90163200      -2.29515034       3.96127659
H       -0.52398889      -0.91628550       2.52025862
H        2.48620592      -0.99581873      -0.56078528
H        3.91162919      -2.40955777       0.86620571
H        1.89157425      -6.05956997       4.45643664
H        1.16746673      -4.83681413       3.40780139
H        1.23717817      -4.55171342       5.17988327
H        6.01200423      -2.98543137       5.73162516
H        4.94221514      -1.15098246       8.83910171
H        4.53759888       1.25766168       8.80315075
H        5.71406727       1.42028044       4.66003776
H        6.11119287      -0.99962434       4.67967203
C        4.84139696       2.91423582       6.71221889
C        4.62742321       4.10100845       6.69732113
Br       4.28144576       6.01991943       6.67323272
