153
Properties=species:S:1:pos:R:3 pbc="F F F"
C        0.00000000       0.00000000       0.00000000
O        7.60154376       2.61230377      -6.94720907
C        7.25528681       3.37853683      -6.04963888
C        6.70689999       4.76474211      -6.37296640
S        4.89623888       4.71344591      -6.58382157
C        4.39609442       4.35320544      -4.96992028
N        5.08517493       4.60737316      -3.88377800
N        4.45005895       3.98445034      -2.84216162
C        3.38149386       3.35479996      -3.30878808
C        2.50087434       2.50261961      -2.50614900
C        1.95610343       1.30891914      -3.00281921
C        1.14118269       0.50540054      -2.19716659
C        0.88145007       0.88145007      -0.88145007
C        1.43196658       2.04971313      -0.36244521
C        2.24092615       2.85285562      -1.17222393
N        3.26181506       3.66203568      -4.64958552
C        2.15469122       3.37448847      -5.52554204
N        7.28112115       3.11087453      -4.69126778
C        7.62074857       1.90672733      -4.04771476
C        8.15373952       0.79245376      -4.69630212
C        8.41768310      -0.38127730      -3.98031464
C        8.15416800      -0.43799964      -2.61353302
Br       8.48856758      -2.03140699      -1.65446648
C        7.63871532       0.67129622      -1.95121989
C        7.37576325       1.84017661      -2.66878687
H        7.16082969       5.10085553      -7.31110475
H        6.99158897       5.48863569      -5.60241190
H        2.17795868       0.96883937      -4.01126087
H        0.72850449      -0.41629976      -2.60035049
H        1.24839003       2.34136068       0.66851134
H        2.67848185       3.75740592      -0.75150490
H        1.99015187       4.22531453      -6.19211446
H        1.24427150       3.22772725      -4.94008351
H        2.39007268       2.47684142      -6.10186076
H        6.83370712       3.80508523      -4.09026840
H        8.37010486       0.80217440      -5.76002005
H        8.82255546      -1.24322977      -4.50376226
H        7.42905570       0.63912740      -0.88564150
H        6.95805932       2.69413436      -2.13829554
O       -2.89015410      -5.97592709      -8.29497541
C       -3.70954461      -5.31866230      -7.65525561
C       -4.88598032      -5.99757260      -6.96105558
S       -4.44104370      -6.48998028      -5.26248238
C       -4.25992523      -4.94184817      -4.51744674
N       -4.82198953      -3.82952071      -4.92481586
N       -4.26576587      -2.80416847      -4.20673658
C       -3.36771243      -3.30594695      -3.37142251
C       -2.50168934      -2.50631702      -2.50163659
C       -1.15813201      -2.83831248      -2.27139728
C       -0.35269512      -2.03461503      -1.45643967
C       -0.88145007      -0.88145007      -0.88145007
C       -2.20526749      -0.52186595      -1.11699148
C       -3.00847273      -1.33045839      -1.92707459
N       -3.41928923      -4.68204979      -3.47209725
C       -2.77643491      -5.65371833      -2.62456849
N       -3.68040762      -3.94895853      -7.45389732
C       -2.69113110      -3.03144377      -7.85261579
C       -1.61384002      -3.34806158      -8.68059380
C       -0.65083185      -2.37913044      -8.98675815
C       -0.76922286      -1.09108112      -8.46939741
Br       0.54501365       0.20786190      -8.86450263
C       -1.84746436      -0.75731785      -7.65644921
C       -2.80572364      -1.72664507      -7.35235803
H       -5.14615984      -6.89576815      -7.53086198
H       -5.76914795      -5.35039816      -6.96309045
H       -0.70731146      -3.70807789      -2.74266957
H        0.68638042      -2.30866326      -1.29027239
H       -2.62064435       0.38561267      -0.68620769
H       -4.03883119      -1.03194929      -2.11661219
H       -3.45548259      -6.49420141      -2.45789686
H       -2.55002928      -5.20927351      -1.65277946
H       -1.86106306      -5.99280217      -3.11490964
H       -4.36111828      -3.58052899      -6.78741347
H       -1.49069427      -4.34178720      -9.09981783
H        0.18757893      -2.64626759      -9.62439929
H       -1.95056853       0.24378236      -7.24703842
H       -3.63501947      -1.45323042      -6.70223934
O       -8.43016241       3.00724655       5.72364765
C       -7.72330681       3.82427106       5.13588465
C       -7.00947650       4.93425862       5.90087339
S       -5.35824515       4.38704821       6.44821301
C       -4.54935271       4.24119913       4.92866830
N       -4.87734455       4.87198158       3.82699997
N       -4.13728239       4.32936921       2.81001932
C       -3.36847400       3.37069562       3.30591227
C       -2.50185701       2.50147655       2.50630939
C       -2.34897205       1.13478540       2.78408432
C       -1.53411789       0.32881622       1.98081571
C       -0.88145007       0.88145007       0.88145007
C       -1.03920919       2.22995012       0.57496561
C       -1.84953386       3.03323800       1.38323384
N       -3.53209891       3.36442466       4.67691269
C       -2.76187634       2.63846409       5.65438130
N       -7.45850161       3.84784918       3.77691268
C       -7.85762739       2.92139005       2.79617323
C       -8.74783466       1.87146512       3.02319561
C       -9.05096558       0.96914749       1.99660736
C       -8.46802680       1.12117958       0.74049501
Br      -8.86015439      -0.11237535      -0.63615197
C       -7.59195731       2.17354746       0.49572665
C       -7.29112971       3.07120719       1.52238983
H       -7.60898563       5.18018770       6.78361664
H       -6.94056670       5.84501546       5.29705440
H       -2.88111436       0.66785673       3.60908783
H       -1.42857201      -0.72836989       2.21235311
H       -0.54728272       2.66515312      -0.29119647
H       -1.97763099       4.08395000       1.12581168
H       -2.60472360       3.26991421       6.53294305
H       -1.78132306       2.38648054       5.24427865
H       -3.30889081       1.73301268       5.92687137
H       -6.74499202       4.51209595       3.47197278
H       -9.21905370       1.72339040       3.98985521
H       -9.73803851       0.15077200       2.19427744
H       -7.13108984       2.30242633      -0.47969157
H       -6.59172160       3.88017873       1.31858890
O        2.96011188      -5.82070002       8.38024471
C        3.77879865      -5.20587008       7.69879379
C        4.91490522      -5.93803632       6.99166697
S        4.40704112      -6.46508974       5.32137550
C        4.24814723      -4.93401243       4.53706047
N        4.85301702      -3.82743160       4.89587748
N        4.30534102      -2.80703754       4.16429236
C        3.36956522      -3.30589291       3.36962376
C        2.50155707      -2.50631471       2.50177117
C        1.14303131      -2.80548073       2.31932974
C        0.33726849      -2.00205081       1.50443053
C        0.88145007      -0.88145007       0.88145007
C        2.22118570      -0.55399439       1.06894483
C        3.02443870      -1.36238809       1.87917891
N        3.38515050      -4.67951992       3.50876584
C        2.69073415      -5.65564354       2.70834404
N        3.78252679      -3.84213365       7.45860302
C        2.83157586      -2.88534794       7.85826687
C        1.77029726      -3.14699456       8.72520358
C        0.84435483      -2.14221314       9.03015246
C        0.98399582      -0.87328042       8.47242515
Br      -0.28097737       0.47396545       8.86656990
C        2.04714539      -0.59410546       7.61998056
C        2.96839192      -1.59908600       7.31724882
H        5.16606199      -6.82696021       7.57976777
H        5.81568923      -5.31701254       6.94993479
H        0.68171097      -3.64811074       2.82823721
H       -0.71352596      -2.25035928       1.37572191
H        2.64933402       0.32849211       0.60039747
H        4.06789372      -1.08872520       2.03077376
H        3.34063371      -6.51988616       2.54706098
H        2.44881792      -5.23243563       1.73082871
H        1.78079095      -5.95398368       3.23400024
H        4.45370978      -3.51262585       6.76272512
H        1.63136721      -4.12447972       9.17645237
H        0.01762441      -2.36674187       9.69872167
H        2.16654398       0.39160812       7.17888874
H        3.78582947      -1.36837244       6.63628732
