174
Properties=species:S:1:pos:R:3 pbc="F F F"
C        1.79165293       1.79165293      -1.79165293
C        3.06775472       1.36069247      -2.14560701
C        3.87711673       2.16879989      -2.95275556
C        3.41014721       3.40033529      -3.43507412
C        2.12900542       3.82393006      -3.04364469
C        1.32034907       3.02509090      -2.22852877
C        4.21510575       4.28183832      -4.28934640
N        4.16259444       5.60624326      -4.25948985
N        5.05533905       6.10782107      -5.16836155
C        5.64391679       5.08758194      -5.74175668
S        6.97171136       5.18755347      -6.84310573
C        7.73495080       6.74721802      -6.29835769
C        8.29453745       6.60291170      -4.88766856
O        9.42335332       6.15434955      -4.70250270
N        7.39992631       7.00094352      -3.90928762
C        7.56195024       6.95371071      -2.51050018
C        8.72958807       6.53876852      -1.87115438
C        8.79765521       6.50242564      -0.47311572
C        7.70115031       6.89346700       0.29298498
C        6.53751530       7.31593854      -0.34245519
Br       5.04881234       7.85626745       0.68928724
C        6.46111420       7.34327524      -1.73566683
N        5.11020720       3.91647014      -5.27809756
C        5.39665022       2.58924878      -5.75766110
H        3.44595908       0.40550708      -1.79121774
H        4.88250499       1.82298093      -3.17199984
H        1.75168495       4.79210284      -3.37332208
H        0.33478185       3.37928356      -1.94150162
H        7.02004739       7.57464632      -6.35735764
H        8.56352388       6.99209749      -6.97125280
H        6.45381479       7.21486036      -4.22644959
H        9.60625002       6.22715609      -2.42980785
H        9.71063392       6.16736869       0.01259994
H        7.76494573       6.86447704       1.37771795
H        5.53915322       7.66517584      -2.21391136
H        4.49062194       1.98044447      -5.71144828
H        6.18700950       2.16006910      -5.13530499
H        5.72122070       2.62456156      -6.79925435
C       -1.79165293      -1.79165293      -1.79165293
C       -1.20632361      -2.73259917      -2.63513141
C       -2.01369995      -3.54037389      -3.44459834
C       -3.41160465      -3.43461452      -3.39933744
C       -3.97681854      -2.46094689      -2.55881474
C       -3.17413645      -1.64394702      -1.75588527
C       -4.30323279      -4.26155602      -4.22150166
N       -5.46212325      -3.84969052      -4.71651378
N       -6.01979621      -4.86422524      -5.44750022
C       -5.19748716      -5.88253583      -5.39323241
S       -5.36210504      -7.35068631      -6.28957920
C       -6.29472398      -6.75252538      -7.73327716
C       -5.44729211      -5.78553187      -8.55229373
O       -4.67032818      -6.20134329      -9.40853410
N       -5.64769600      -4.46184390      -8.20061754
C       -4.99928243      -3.31862351      -8.70825519
C       -4.05832510      -3.34421171      -9.73697416
C       -3.44559263      -2.16085950     -10.16674444
C       -3.78085817      -0.94325779      -9.57751637
C       -4.72571702      -0.91379591      -8.55639611
Br      -5.19249469       0.73459669      -7.75789455
C       -5.33093897      -2.09206143      -8.11705586
N       -4.13538565      -5.58550223      -4.58388703
C       -3.09048349      -6.48489822      -4.16817839
H       -0.12561276      -2.83827086      -2.67880027
H       -1.52307859      -4.23137666      -4.12303051
H       -5.05868779      -2.33047675      -2.52794532
H       -3.63935120      -0.89942368      -1.11679216
H       -7.23779269      -6.28869284      -7.42556582
H       -6.55101985      -7.60588498      -8.36996933
H       -6.22255088      -4.29937740      -7.37319646
H       -3.76951897      -4.27038919     -10.22330580
H       -2.70629615      -2.19617982     -10.96292670
H       -3.30172606      -0.02973406      -9.92024470
H       -6.05821620      -2.05022768      -7.30979654
H       -2.78978050      -6.24779936      -3.14493482
H       -2.24781132      -6.37750968      -4.85706259
H       -3.45084973      -7.51520347      -4.17898342
C       -1.79165293       1.79165293       1.79165293
C       -1.20472350       2.68169226       2.68763844
C       -2.01216048       3.48939473       3.49711698
C       -3.41037882       3.43500748       3.40017033
C       -3.97844558       2.51147026       2.50666433
C       -3.17624614       1.69449637       1.70322623
C       -4.30175812       4.26441228       4.22012007
N       -5.49096533       3.87725255       4.66010967
N       -6.03911748       4.88528036       5.40712383
C       -5.18093140       5.87498023       5.41734377
S       -5.32681651       7.31642246       6.35913158
C       -6.33014464       6.70258917       7.74779271
C       -5.54605154       5.67854244       8.56052372
O       -4.78619998       6.03683863       9.45716697
N       -5.77914442       4.37566588       8.15534715
C       -5.18880717       3.19336956       8.64398439
C       -4.28468744       3.15016979       9.70465374
C       -3.72859735       1.93173171      10.11286751
C       -4.08430190       0.74775929       9.46957115
C       -4.99272144       0.78696797       8.41621962
Br      -5.48712520      -0.81541130       7.54407865
C       -5.54114461       2.00038710       7.99852456
N       -4.10155403       5.56833644       4.63488444
C       -3.01228075       6.44376087       4.28751848
H       -0.12325796       2.74732144       2.77210450
H       -1.52253571       4.13882742       4.21612263
H       -5.06237426       2.42067477       2.43406084
H       -3.64373070       0.98935512       1.02248121
H       -7.27704416       6.28340709       7.39160011
H       -6.57946828       7.54216268       8.40524321
H       -6.32946239       4.26223185       7.30343049
H       -3.98173089       4.04825723      10.23322584
H       -3.01729242       1.91340193      10.93470831
H       -3.64929341      -0.19344339       9.79585480
H       -6.24027481       2.01216437       7.16580124
H       -2.68371146       6.23138485       3.26741839
H       -2.19881078       6.28290492       5.00066790
H       -3.33722659       7.48524611       4.32256391
C        1.79165293      -1.79165293       1.79165293
C        2.86737392      -1.23098176       2.47569852
C        3.67685421      -2.03867014       3.28314784
C        3.40376901      -3.40596122       3.43582640
C        2.32812602      -3.95251788       2.71593627
C        1.52265589      -3.15194525       1.89936760
C        4.21633545      -4.29495931       4.27499570
N        4.45014167      -5.57198070       4.00620519
N        5.25764534      -6.09177564       4.98210069
C        5.50973219      -5.12927969       5.83424352
S        6.61787244      -5.22803076       7.15646735
C        7.77514479      -6.48182056       6.52356117
C        8.52703131      -5.94887184       5.30921456
O        9.55055209      -5.28309330       5.44656019
N        7.91937541      -6.28027964       4.11050239
C        8.30716313      -5.91197651       2.80702148
C        9.45365189      -5.17609710       2.50976199
C        9.75320796      -4.83467481       1.18531379
C        8.91312841      -5.23901112       0.14949280
C        7.77275324      -5.98061930       0.44253650
Br       6.63273097      -6.54040748      -0.95734589
C        7.46411513      -6.31380008       1.76214106
N        4.82955507      -3.99707894       5.47814090
C        4.74246873      -2.77169178       6.22939958
H        3.09118756      -0.17188594       2.37961040
H        4.53335519      -1.57832802       3.76580255
H        2.11217316      -5.01874737       2.78618933
H        0.69871017      -3.60262902       1.35422784
H        7.25153149      -7.41395189       6.28656798
H        8.50760094      -6.71599615       7.30327707
H        6.99935524      -6.71653388       4.17923562
H       10.13482752      -4.84246587       3.28592056
H       10.64495957      -4.25206944       0.96837365
H        9.15595234      -4.97144227      -0.87568978
H        6.56224012      -6.88372575       1.97227454
H        3.75042467      -2.33286540       6.09922463
H        5.52003194      -2.09092877       5.87142289
H        4.88209089      -2.96910027       7.29384547
C       -0.00445707       0.01189536      -1.78238275
H       -0.66409135       0.67374010      -2.43557963
H        0.65740317      -0.63156657      -2.45157240
C       -0.90989263      -0.90692880      -0.91072765
C        0.90977584       0.90977584      -0.90977584
C       -0.00465871       1.77757030       0.00794375
H       -0.66225468       2.44313916      -0.64384735
H        0.64322798       2.43503045       0.67728295
C       -1.78241447       0.00034974      -0.00472694
H       -2.45427497      -0.65498947       0.64260836
H       -2.43311707       0.67328779      -0.65473579
C       -0.91132561       0.90220522       0.91563759
C       -0.01476271      -0.02253852       1.78660255
H       -0.67934791      -0.69751639       2.42135241
H        0.63392994       0.61504881       2.47327442
C        0.01484550      -1.77751727      -0.01636693
H        0.67870853      -2.42144646      -0.68295456
H       -0.62264859      -2.45592969       0.64226336
C        1.78714474       0.01002794       0.00389507
H        2.44202412       0.67113390       0.66197326
H        2.45385902      -0.65136977      -0.64189061
C        0.91606151      -0.90478549       0.90901405
