182
Properties=species:S:1:pos:R:3 pbc="F F F"
C        1.79165293       1.79165293      -1.79165293
C        3.06775472       1.36069247      -2.14560701
C        3.87711673       2.16879989      -2.95275556
C        3.41014721       3.40033529      -3.43507412
C        2.12900542       3.82393006      -3.04364469
C        1.32034907       3.02509090      -2.22852877
C        4.21510575       4.28183832      -4.28934640
N        4.16259444       5.60624326      -4.25948985
N        5.05533905       6.10782107      -5.16836155
C        5.64391679       5.08758194      -5.74175668
S        6.97171136       5.18755347      -6.84310573
C        7.73495080       6.74721802      -6.29835769
C        8.29453745       6.60291170      -4.88766856
O        9.42335332       6.15434955      -4.70250270
N        7.39992631       7.00094352      -3.90928762
C        7.56195024       6.95371071      -2.51050018
C        8.72958807       6.53876852      -1.87115438
C        8.79765521       6.50242564      -0.47311572
C        7.70115031       6.89346700       0.29298498
C        6.53751530       7.31593854      -0.34245519
C        6.46111420       7.34327524      -1.73566683
N        5.11020720       3.91647014      -5.27809756
C        5.39665022       2.58924878      -5.75766110
H        3.44595908       0.40550708      -1.79121774
H        4.88250499       1.82298093      -3.17199984
H        1.75168495       4.79210284      -3.37332208
H        0.33478185       3.37928356      -1.94150162
H        7.02004739       7.57464632      -6.35735764
H        8.56352388       6.99209749      -6.97125280
H        6.45381479       7.21486036      -4.22644959
H        9.60625002       6.22715609      -2.42980785
H        9.71063392       6.16736869       0.01259994
H        7.76494573       6.86447704       1.37771795
H        5.53915322       7.66517584      -2.21391136
H        4.49062194       1.98044447      -5.71144828
H        6.18700950       2.16006910      -5.13530499
H        5.72122070       2.62456156      -6.79925435
C        5.40335818       7.72758405       0.44357000
C        4.45350159       8.07233716       1.10186610
Br       2.91766382       8.62977378       2.16627521
C       -1.79165293      -1.79165293      -1.79165293
C       -1.23671687      -2.45282269      -2.88451464
C       -2.04443370      -3.26024727      -3.69399122
C       -3.40551738      -3.43585092      -3.40418832
C       -3.94683855      -2.73864454      -2.31109708
C       -3.14641849      -1.92214671      -1.50540354
C       -4.29413268      -4.27608708      -4.21607070
N       -5.57790347      -4.02202610      -4.42839799
N       -6.09542507      -4.99385356      -5.24224304
C       -5.12486493      -5.82884437      -5.51954610
S       -5.22085069      -7.13686909      -6.64465077
C       -6.49938321      -6.50566402      -7.77547928
C       -5.99388041      -5.27367801      -8.51755929
O       -5.34068709      -5.38750169      -9.55201679
N       -6.33328139      -4.08825172      -7.88862434
C       -5.98851832      -2.77449415      -8.26314866
C       -5.27297385      -2.45111294      -9.41542418
C       -4.95413890      -1.11798959      -9.70106808
C       -5.36094120      -0.09966060      -8.84103053
C       -6.08235739      -0.41882261      -7.69472903
C       -6.39289205      -1.74711330      -7.40005092
N       -3.98826935      -5.46633884      -4.85016672
C       -2.75150721      -6.20146918      -4.79058370
H       -0.18229482      -2.33880272      -3.12158636
H       -1.58951808      -3.72450464      -4.56346303
H       -5.00886049      -2.82682579      -2.08142358
H       -3.59299853      -1.39483065      -0.66773785
H       -7.42726759      -6.28903331      -7.23575046
H       -6.73300181      -7.27838193      -8.51549042
H       -6.75559619      -4.17581602      -6.96371253
H       -4.93822575      -3.21301953     -10.11196868
H       -4.38715485      -0.88058543     -10.59766238
H       -5.11101024       0.93243464      -9.07312923
H       -6.94715101      -1.97767430      -6.49341511
H       -2.30065225      -6.07888636      -3.80297608
H       -2.08673377      -5.82325854      -5.57239129
H       -2.93611248      -7.26654612      -4.94237803
C       -6.51131483       0.62946548      -6.80552287
C       -6.87056669       1.50740675      -6.06081272
Br      -7.45144656       2.92696354      -4.85667938
C       -1.79165293       1.79165293       1.79165293
C       -1.23083410       2.86690389       2.47631621
C       -2.03805421       3.67489349       3.28572449
C       -3.41517511       3.43309984       3.39728168
C       -3.95237435       2.32766911       2.71653671
C       -3.14821670       1.51078670       1.91496534
C       -4.30660787       4.25341660       4.22626600
N       -5.36390692       3.78777489       4.87664574
N       -5.95300088       4.81587997       5.56264081
C       -5.25067399       5.89616988       5.32641153
S       -5.48248259       7.42787572       6.09201224
C       -6.20644948       6.89854870       7.67552834
C       -5.18871965       6.10721863       8.48917943
O       -4.38199848       6.68207300       9.21613409
N       -5.28183240       4.74099177       8.28733327
C       -4.47215995       3.72375679       8.83024439
C       -3.44590317       3.94587953       9.74772827
C       -2.67472555       2.87738403      10.22108699
C       -2.93494777       1.57854227       9.78814229
C       -3.96394200       1.35301077       8.87895626
C       -4.72805785       2.41617971       8.39581871
N       -4.24473897       5.61793780       4.44209815
C       -3.34381964       6.56373855       3.83600191
H       -0.16787263       3.07841191       2.39639935
H       -1.56045430       4.47645729       3.84057416
H       -5.01267451       2.09284128       2.81159407
H       -3.59133647       0.66276228       1.40146829
H       -7.12064961       6.31785454       7.51354721
H       -6.48923782       7.78575509       8.25188126
H       -5.91226311       4.43909869       7.54376293
H       -3.21090726       4.94104361      10.11126308
H       -1.87114609       3.06570296      10.92855361
H       -2.33252330       0.75541142      10.16377010
H       -5.52010529       2.22139084       7.67674429
H       -3.11818629       6.25035755       2.81397085
H       -2.43311793       6.60933181       4.43993385
H       -3.80742086       7.55073911       3.78687665
C       -4.24211410       0.01241145       8.43284668
C       -4.47508322      -1.11034048       8.05922991
Br      -4.85177460      -2.92573539       7.45512318
C        1.79165293      -1.79165293       1.79165293
C        2.99023193      -1.29048595       2.29333632
C        3.79966367      -2.09840359       3.10060492
C        3.40720788      -3.40265157       3.43569717
C        2.20605552      -3.89355175       2.89697290
C        1.39881543      -3.09405794       2.08109537
C        4.21498544      -4.28801931       4.28328571
N        4.28449873      -5.60416448       4.13966434
N        5.14071603      -6.11011901       5.08068662
C        5.58578654      -5.10054641       5.78692246
S        6.82178448      -5.18932572       6.99126035
C        7.76459427      -6.62534219       6.39059006
C        8.42339275      -6.30901688       5.05270807
O        9.51868095      -5.75402143       5.00750320
N        7.65200339      -6.68984324       3.96831081
C        7.92396530      -6.50373519       2.59846063
C        9.09827997      -5.93803877       2.10319224
C        9.27790590      -5.77055798       0.72473268
C        8.28799070      -6.18020315      -0.16656152
C        7.11864862      -6.75269096       0.32456946
C        6.93033891      -6.91148613       1.69823123
N        4.98894495      -3.94050495       5.37532501
C        5.11425957      -2.64272930       5.98657123
H        3.30889802      -0.27935517       2.05443071
H        4.74832835      -1.69195408       3.43720333
H        1.89147403      -4.91527632       3.11035952
H        0.47616907      -3.50108425       1.67831371
H        7.12462148      -7.51087018       6.31655969
H        8.55349055      -6.86057946       7.11280415
H        6.70605024      -7.00875216       4.18032234
H        9.89425777      -5.60669957       2.76225662
H       10.19397963      -5.31898215       0.35244088
H        8.43819080      -6.04856366      -1.23504964
H        6.00478267      -7.35007280       2.06338495
H        4.16404058      -2.10906737       5.90940675
H        5.91143471      -2.09555601       5.47539288
H        5.35364865      -2.74472253       7.04666545
C        6.09486051      -7.18409968      -0.59158796
C        5.23743797      -7.54540449      -1.35886981
Br       3.85105824      -8.12960380      -2.59949965
C       -0.00445707       0.01189536      -1.78238275
H       -0.66409135       0.67374010      -2.43557963
H        0.65740317      -0.63156657      -2.45157240
C       -0.90989263      -0.90692880      -0.91072765
C        0.90977584       0.90977584      -0.90977584
C       -0.00465871       1.77757030       0.00794375
H       -0.66225468       2.44313916      -0.64384735
H        0.64322798       2.43503045       0.67728295
C       -1.78241447       0.00034974      -0.00472694
H       -2.45427497      -0.65498947       0.64260836
H       -2.43311707       0.67328779      -0.65473579
C       -0.91132561       0.90220522       0.91563759
C       -0.01476271      -0.02253852       1.78660255
H       -0.67934791      -0.69751639       2.42135241
H        0.63392994       0.61504881       2.47327442
C        0.01484550      -1.77751727      -0.01636693
H        0.67870853      -2.42144646      -0.68295456
H       -0.62264859      -2.45592969       0.64226336
C        1.78714474       0.01002794       0.00389507
H        2.44202412       0.67113390       0.66197326
H        2.45385902      -0.65136977      -0.64189061
C        0.91606151      -0.90478549       0.90901405
