153
Properties=species:S:1:pos:R:3 pbc="F F F"
C        0.00000000       0.00000000       0.00000000
C        0.88174890       0.88174890      -0.88174890
C        2.15785069       0.45078844      -1.23570299
C        2.96721271       1.25889587      -2.04285154
C        2.50024319       2.49043126      -2.52517010
C        1.21910140       2.91402603      -2.13374067
C        0.41044505       2.11518687      -1.31862475
C        3.30520172       3.37193429      -3.37944238
N        3.25269042       4.69633923      -3.34958583
N        4.14543502       5.19791705      -4.25845753
C        4.73401277       4.17767791      -4.83185265
S        6.06180733       4.27764944      -5.93320170
C        6.82504678       5.83731399      -5.38845367
C        7.38463343       5.69300767      -3.97776453
O        8.51344930       5.24444552      -3.79259868
N        6.49002229       6.09103949      -2.99938359
C        6.65204622       6.04380668      -1.60059615
C        7.81968405       5.62886450      -0.96125036
C        7.88775118       5.59252162       0.43678830
C        6.79124629       5.98356298       1.20288901
C        5.62761128       6.40603452       0.56744884
Br       4.13890832       6.94636343       1.59919127
C        5.55121017       6.43337121      -0.82576281
N        4.20030318       3.00656612      -4.36819354
C        4.48674619       1.67934475      -4.84775708
H        2.53605506      -0.50439695      -0.88131371
H        3.97260096       0.91307690      -2.26209582
H        0.84178092       3.88219881      -2.46341806
H       -0.57512217       2.46937954      -1.03159760
H        6.11014337       6.66474230      -5.44745361
H        7.65361985       6.08219347      -6.06134877
H        5.54391076       6.30495634      -3.31654556
H        8.69634599       5.31725207      -1.51990383
H        8.80072989       5.25746467       0.92250397
H        6.85504170       5.95457302       2.28762198
H        4.62924920       6.75527181      -1.30400734
H        3.58071792       1.07054044      -4.80154426
H        5.27710548       1.25016508      -4.22540097
H        4.81131668       1.71465754      -5.88935033
C       -0.88174890      -0.88174890      -0.88174890
C       -0.46821052      -2.17187275      -1.20425885
C       -1.27520063      -2.98033549      -2.01342400
C       -2.51277519      -2.51822656      -2.48484280
C       -2.89602745      -1.20461535      -2.16622530
C       -2.08843205      -0.38891159      -1.36691302
C       -3.39935814      -3.32727364      -3.32994661
N       -4.17902749      -2.83633528      -4.28325272
N       -4.85196252      -3.86699567      -4.88285141
C       -4.47650993      -4.97452586      -4.29250755
S       -4.91046110      -6.57112186      -4.79107552
C       -5.18287298      -6.29832400      -6.56961747
C       -3.87566732      -5.92195834      -7.25777997
O       -3.10330670      -6.79016703      -7.65701977
N       -3.68500788      -4.55354270      -7.34189479
C       -2.57451748      -3.85981037      -7.86212120
C       -1.47510522      -4.47655672      -8.45813697
C       -0.40244823      -3.71055288      -8.93048339
C       -0.43011520      -2.32158837      -8.82021668
C       -1.52979925      -1.70300364      -8.23339407
Br      -1.57910597       0.18089547      -8.08786998
C       -2.59630485      -2.46297117      -7.75106818
N       -3.61683374      -4.69147328      -3.26675581
C       -3.08966249      -5.62183166      -2.30235387
H        0.48241946      -2.55374350      -0.84164777
H       -0.90179487      -3.96352069      -2.28245813
H       -3.83587435      -0.80449696      -2.54702648
H       -2.41041252       0.62258141      -1.13802385
H       -5.95095364      -5.53565500      -6.73573064
H       -5.55117945      -7.22623652      -7.01974613
H       -4.35557279      -3.97496153      -6.83487834
H       -1.41396756      -5.55481173      -8.56472260
H        0.45302794      -4.20467542      -9.38404312
H        0.40622817      -1.73559042      -9.19263050
H       -3.44143858      -1.96213112      -7.28495865
H       -2.99239686      -5.12751211      -1.33289364
H       -2.11812685      -5.97567911      -2.65886556
H       -3.77055981      -6.46599684      -2.17876790
C       -0.88174890       0.88174890       0.88174890
C       -0.47301255       2.17547050       1.19585908
C       -1.27999923       2.98394396       2.00501692
C       -2.51293957       2.51808832       2.48481666
C       -2.89125527       1.20104818       2.17456465
C       -2.08357902       0.38538557       1.37529207
C       -3.39934324       3.32693221       3.33030295
N       -4.17187612       2.83688325       4.28985611
N       -4.84694064       3.86717235       4.88769661
C       -4.47987751       4.97360399       4.29006183
S       -4.91925917       6.57049119       4.78290811
C       -5.18156537       6.30515326       6.56409581
C       -3.86914497       5.93863054       7.24763012
O       -3.09913154       6.81259200       7.63876996
N       -3.67131055       4.57160210       7.33753272
C       -2.55485772       3.88592229       7.85566904
C       -1.45558920       4.51100949       8.44320022
C       -0.37684708       3.75263707       8.91400034
C       -0.39818852       2.36302504       8.81070670
C       -1.49767449       1.73614361       8.23237885
Br      -1.53838154      -0.14867176       8.09637071
C       -2.57028462       2.48846080       7.75159878
N       -3.62386937       4.68971627       3.26147719
C       -3.10605564       5.61787742       2.28991496
H        0.47392223       2.56021615       0.82667790
H       -0.91014003       3.97027254       2.26736111
H       -3.82722751       0.79819833       2.56197195
H       -2.40167671      -0.62879862       1.15297687
H       -5.94503926       5.53954523       6.73775478
H       -5.55223611       7.23345672       7.01146926
H       -4.34149298       3.98722908       6.83669061
H       -1.39925978       5.59006605       8.54417605
H        0.47839669       4.25319896       9.36088832
H        0.44286407       1.78299738       9.18185943
H       -3.41521473       1.98117039       7.29214322
H       -3.01111800       5.11925519       1.32242943
H       -2.13453912       5.97825882       2.63987358
H       -3.79171818       6.45806107       2.16554530
C        0.88174890      -0.88174890       0.88174890
C        2.24076969      -0.60213574       1.00143669
C        3.04996586      -1.41055151       1.80844275
C        2.50518358      -2.48742161       2.52323937
C        1.13663142      -2.76387700       2.36635967
C        0.32576116      -1.96567717       1.55281834
C        3.30760022      -3.36111599       3.38786219
N        3.08171144      -4.65600155       3.56090250
N        4.02704265      -5.16306959       4.41169735
C        4.81986505      -4.17587277       4.74780551
S        6.27180684      -4.32863807       5.67221357
C        6.73967184      -6.04078628       5.27035633
C        7.09864253      -6.16296300       3.79380011
O        8.23586913      -5.91353243       3.40109194
N        6.02575399      -6.54676345       3.00792792
C        5.98414416      -6.70390033       1.60840457
C        7.08805683      -6.55146555       0.77027652
C        6.95301899      -6.70531080      -0.61484530
C        5.71438418      -7.02519593      -1.16765986
C        4.61285384      -7.18610693      -0.33276381
Br       2.93121202      -7.62857118      -1.07370272
C        4.74016187      -7.02281838       1.04736395
N        4.37830872      -3.00808931       4.18866481
C        4.90037950      -1.68726886       4.42619966
H        2.68192553       0.23325302       0.46429931
H        4.11268442      -1.19174655       1.84334272
H        0.69102619      -3.61530437       2.88106723
H       -0.72860396      -2.20432076       1.45013815
H        5.94110026      -6.73907775       5.54216127
H        7.62017061      -6.31692761       5.86006387
H        5.11730900      -6.57612310       3.47198056
H        8.07026858      -6.30363436       1.15959895
H        7.81962849      -6.57389283      -1.25783074
H        5.62048056      -7.14540935      -2.24389716
H        3.86532899      -7.14096672       1.68223264
H        4.08317581      -0.96236541       4.40726140
H        5.63864158      -1.46297697       3.65105298
H        5.36796094      -1.63614447       5.41121915
