178
Properties=species:S:1:pos:R:3 pbc="F F F"
C        1.79122593       1.79122593      -1.79122593
C        2.81403583       2.54340707      -1.22255271
C        3.61067810       3.36194747      -2.03335688
C        3.39348787       3.43118003      -3.41639559
C        2.37159301       2.65571989      -3.97163397
C        1.56707623       1.84091088      -3.16273165
N        4.24358133       4.28025133      -4.16800365
C        4.24570269       4.44276278      -5.53491248
O        3.41441302       3.97770942      -6.31042158
C        5.33027710       5.31048010      -6.10103203
C        6.62477327       5.32238313      -5.71462581
C        7.24642193       4.56849669      -4.57359288
N        7.52371758       6.03951432      -6.47916911
C        7.27488815       6.52653145      -7.73025140
O        8.14968119       7.04001916      -8.41488065
N        6.00264927       6.38173876      -8.17927961
C        4.87932424       6.12907963      -7.29565727
H        4.18880150       5.55818153      -7.92785579
C        4.18263576       7.43073470      -6.89184835
C        4.87429660       8.65082617      -6.77039505
C        4.20870045       9.82699405      -6.41600131
C        2.84218272       9.79607667      -6.16164751
Br       1.94216315      11.38843538      -5.68676005
C        2.13650964       8.59938446      -6.25654308
C        2.80274080       7.42414933      -6.61962947
H        3.00002001       2.50130234      -0.15241088
H        4.40546519       3.93503314      -1.56323683
H        2.15912666       2.65715585      -5.03511914
H        0.77382300       1.25614510      -3.61979768
H        4.91375296       4.81384456      -3.63464116
H        8.30285886       4.35273380      -4.76933520
H        6.76396558       3.60299313      -4.40199047
H        7.19745879       5.16673148      -3.65716408
H        8.50057387       6.08744400      -6.21248426
H        5.81985587       6.78686587      -9.08620225
H        5.94305290       8.71235041      -6.96297398
H        4.76763935      10.75694227      -6.34800403
H        1.06868396       8.57021420      -6.05602926
H        2.23067220       6.49967766      -6.69563765
C       -1.79122593      -1.79122593      -1.79122593
C       -2.34386054      -2.95956914      -1.27656592
C       -3.13989276      -3.77262708      -2.09346261
C       -3.39194257      -3.42210454      -3.42701638
C       -2.84133437      -2.23622062      -3.92139187
C       -2.03787011      -1.42342989      -3.10941876
N       -4.20907238      -4.29549358      -4.18727035
C       -4.63202928      -4.10766681      -5.48368186
O       -4.25256368      -3.21395626      -6.23602408
C       -5.59509048      -5.12270501      -6.02399375
C       -6.63816648      -5.66514591      -5.35846982
C       -7.00367512      -5.47039714      -3.91443924
N       -7.53650338      -6.43193324      -6.07396439
C       -7.61253649      -6.48284275      -7.43629176
O       -8.51206527      -7.07608825      -8.01642748
N       -6.64349257      -5.81174693      -8.10842813
C       -5.38685198      -5.42064585      -7.49656331
H       -5.11300465      -4.51347799      -8.04835619
C       -4.29740780      -6.46783432      -7.73997669
C       -4.58486079      -7.83968723      -7.87096980
C       -3.57120229      -8.77117566      -8.10931786
C       -2.25125450      -8.34477384      -8.20387857
Br      -0.88156500      -9.60503582      -8.53075777
C       -1.93635608      -6.99599073      -8.06009036
C       -2.95329387      -6.06342593      -7.82979979
H       -2.16230808      -3.24725537      -0.24416978
H       -3.56261057      -4.67708049      -1.66404411
H       -3.00658047      -1.90428423      -4.94053695
H       -1.61501651      -0.51209084      -3.52265843
H       -4.50693563      -5.13758784      -3.71771521
H       -8.08275777      -5.58247708      -3.75969301
H       -6.74487198      -4.47252991      -3.55154729
H       -6.50296044      -6.22292003      -3.29547387
H       -8.32245221      -6.87053727      -5.60751266
H       -6.68360492      -5.89516617      -9.11415290
H       -5.60586708      -8.20867390      -7.80383630
H       -3.82744439      -9.82146205      -8.22367923
H       -0.90556125      -6.65867008      -8.13069609
H       -2.68647537      -5.01171761      -7.72779453
C       -1.79122593       1.79122593       1.79122593
C       -1.63833103       1.76791006       3.17375452
C       -2.45934369       2.56740988       3.97922887
C       -3.43452880       3.39735852       3.40917617
C       -3.56221389       3.41935771       2.01737527
C       -2.74764478       2.61511822       1.20795576
N       -4.22308806       4.17750957       4.29123868
C       -5.18228452       5.10047367       3.94061976
O       -5.60438260       5.29459175       2.80356967
C       -5.79201281       5.88685330       5.06292312
C       -5.13344280       6.40638792       6.12195148
C       -3.68521002       6.22548126       6.47782022
N       -5.81966332       7.26960436       6.95313333
C       -7.02198952       7.84755987       6.66212162
O       -7.52154237       8.70624641       7.37679222
N       -7.61702259       7.43044337       5.51620168
C       -7.26301088       6.18997068       4.85107958
H       -7.47450073       6.40376554       3.79657256
C       -8.17319593       5.04080435       5.29121853
C       -8.73993766       4.97729548       6.57828468
C       -9.58078989       3.92412710       6.94677881
C       -9.85402669       2.90916385       6.03671636
Br     -10.99508434       1.48751113       6.53476312
C       -9.29222461       2.93732404       4.76288853
C       -8.45719464       3.99677894       4.39254602
H       -0.88601660       1.13300337       3.63471326
H       -2.31496894       2.53292540       5.05584083
H       -4.29016260       4.04662601       1.51461304
H       -2.87511716       2.64510044       0.12954817
H       -4.05273462       4.03402940       5.27547465
H       -3.30239291       7.08882974       7.03370521
H       -3.04996427       6.12475108       5.59423383
H       -3.56252545       5.34324855       7.11558034
H       -5.36586186       7.66653824       7.76810204
H       -8.52656809       7.83067841       5.33567750
H       -8.54896612       5.75420633       7.31520484
H      -10.01741735       3.91286468       7.94230363
H       -9.50107742       2.14461565       4.04923435
H       -8.03376737       4.00383899       3.38838115
C        1.79122593      -1.79122593       1.79122593
C        1.46779670      -1.98136634       3.13083257
C        2.28769674      -2.77906116       3.93922454
C        3.43242265      -3.39444983       3.41419101
C        3.73204006      -3.20481197       2.06209483
C        2.91828931      -2.40111443       1.25131503
N        4.20830670      -4.18788635       4.29564326
C        5.32342043      -4.92745211       3.97250541
O        5.90514337      -4.90651042       2.89089024
C        5.89496117      -5.78274536       5.06408270
C        5.19078598      -6.52289909       5.94809714
C        3.69885073      -6.57319706       6.11646370
N        5.88405601      -7.40337160       6.75497340
C        7.18222260      -7.78248275       6.56696565
O        7.70579227      -8.66508060       7.23370813
N        7.84904918      -7.13854814       5.57607032
C        7.40872847      -5.86994740       5.02538527
H        7.77616393      -5.90582311       3.99285179
C        8.08734487      -4.69094181       5.72693213
C        8.47698803      -4.73972211       7.07880769
C        9.10978557      -3.65348303       7.68842721
C        9.34748029      -2.49490779       6.95751882
Br      10.20750650      -1.02796275       7.78188933
C        8.95609597      -2.41265311       5.62368809
C        8.33012882      -3.50409279       5.01229799
H        0.58283791      -1.51486625       3.55602907
H        2.00867320      -2.91419923       4.98086274
H        4.59712693      -3.66092951       1.59334520
H        3.18029576      -2.26337867       0.20609134
H        3.89980203      -4.20615908       5.25627757
H        3.37573659      -7.54652945       6.50266183
H        3.16923407      -6.42817677       5.17153834
H        3.37596891      -5.81116373       6.83422170
H        5.39382429      -7.96361739       7.44306045
H        8.82103013      -7.39457711       5.47731675
H        8.30794819      -5.62999030       7.68043880
H        9.41478031      -3.72862250       8.72918285
H        9.13762313      -1.50793604       5.04936825
H        8.03857383      -3.42198824       3.96542545
C       -0.00445707       0.01189536      -1.78238275
H       -0.66409135       0.67374010      -2.43557963
H        0.65740317      -0.63156657      -2.45157240
C       -0.90989263      -0.90692880      -0.91072765
C        0.90977584       0.90977584      -0.90977584
C       -0.00465871       1.77757030       0.00794375
H       -0.66225468       2.44313916      -0.64384735
H        0.64322798       2.43503045       0.67728295
C       -1.78241447       0.00034974      -0.00472694
H       -2.45427497      -0.65498947       0.64260836
H       -2.43311707       0.67328779      -0.65473579
C       -0.91132561       0.90220522       0.91563759
C       -0.01476271      -0.02253852       1.78660255
H       -0.67934791      -0.69751639       2.42135241
H        0.63392994       0.61504881       2.47327442
C        0.01484550      -1.77751727      -0.01636693
H        0.67870853      -2.42144646      -0.68295456
H       -0.62264859      -2.45592969       0.64226336
C        1.78714474       0.01002794       0.00389507
H        2.44202412       0.67113390       0.66197326
H        2.45385902      -0.65136977      -0.64189061
C        0.91606151      -0.90478549       0.90901405
