165
Properties=species:S:1:pos:R:3 pbc="F F F"
C        0.00000000       0.00000000       0.00000000
C        0.88132190       0.88132190      -0.88132190
C        1.90413180       1.63350305      -0.31264868
C        2.70077407       2.45204345      -1.12345285
C        2.48358384       2.52127600      -2.50649157
C        1.46168898       1.74581586      -3.06172994
C        0.65717221       0.93100686      -2.25282762
N        3.33367731       3.37034731      -3.25809962
C        3.33579867       3.53285876      -4.62500845
O        2.50450900       3.06780540      -5.40051756
C        4.42037308       4.40057607      -5.19112801
C        5.71486924       4.41247910      -4.80472179
C        6.33651790       3.65859266      -3.66368886
N        6.61381356       5.12961029      -5.56926509
C        6.36498413       5.61662743      -6.82034738
O        7.23977717       6.13011513      -7.50497662
N        5.09274525       5.47183474      -7.26937558
C        3.96942022       5.21917561      -6.38575324
H        3.27889748       4.64827751      -7.01795177
C        3.27273174       6.52083067      -5.98194433
C        3.96439258       7.74092215      -5.86049103
C        3.29879642       8.91709002      -5.50609729
C        1.93227870       8.88617264      -5.25174349
C        1.22660561       7.68948043      -5.34663906
C        1.89283677       6.51424530      -5.70972545
H        2.09011598       1.59139832       0.75749315
H        3.49556116       3.02512912      -0.65333281
H        1.24922264       1.74725182      -4.12521511
H       -0.13608102       0.34624108      -2.70989366
H        4.00384894       3.90394053      -2.72473713
H        7.39295484       3.44282978      -3.85943118
H        5.85406156       2.69308910      -3.49208645
H        6.28755476       4.25682746      -2.74726005
H        7.59066985       5.17753997      -5.30258024
H        4.90995185       5.87696185      -8.17629822
H        5.03314888       7.80244638      -6.05306995
H        3.85773533       9.84703825      -5.43810001
H        0.15877993       7.66031018      -5.14612524
H        1.32076818       5.58977363      -5.78573362
C        1.24645922      10.09955806      -4.88987683
C        0.67208541      11.11576835      -4.58681351
Br      -0.25662846      12.75889443      -4.09678575
C       -0.88132190      -0.88132190      -0.88132190
C       -2.21243666      -1.09789670      -0.53995018
C       -3.01322500      -1.91926086      -1.34378452
C       -2.49109301      -2.52561731      -2.49464109
C       -1.15598335      -2.28310212      -2.83014931
C       -0.34894154      -1.46776858      -2.02429656
N       -3.36582394      -3.33997664      -3.25632365
C       -3.07821463      -3.96894563      -4.44650562
O       -1.96852903      -4.03538434      -4.96891858
C       -4.21773237      -4.67500506      -5.11933973
C       -5.48550918      -4.22054503      -5.22601593
C       -6.06834242      -2.98064979      -4.60980721
N       -6.35429927      -4.90828596      -6.05010370
C       -5.98485974      -5.85217607      -6.96492312
O       -6.78020383      -6.33444999      -7.76021510
N       -4.67425108      -6.20347700      -6.95622749
C       -3.79785552      -5.94878042      -5.82771313
H       -2.81386959      -5.83353247      -6.29772470
C       -3.73322397      -7.15481137      -4.88747140
C       -4.81807578      -8.03480980      -4.71292017
C       -4.72453596      -9.13743525      -3.86001252
C       -3.54783952      -9.36655351      -3.15580181
C       -2.46538459      -8.50179118      -3.29554933
C       -2.55761938      -7.40291712      -4.15627103
H       -2.63663869      -0.63449229       0.34710983
H       -4.05071681      -2.06730621      -1.05600007
H       -0.69525194      -2.71425976      -3.71217787
H        0.68798457      -1.30420332      -2.30383495
H       -4.29321217      -3.46174109      -2.87757335
H       -6.89353860      -2.58742526      -5.21425192
H       -5.33622773      -2.17317120      -4.52983818
H       -6.46834978      -3.20774234      -3.61555015
H       -7.31843816      -4.60921008      -6.14314182
H       -4.42267782      -6.93521833      -7.60531578
H       -5.75318545      -7.88699268      -5.24848708
H       -5.57376060      -9.80879152      -3.76032147
H       -1.54456382      -8.67569674      -2.74495480
H       -1.69647605      -6.74265614      -4.25714324
C       -3.45114481     -10.50517912      -2.27957019
C       -3.37016300     -11.45877807      -1.54572621
Br      -3.23922225     -13.00066692      -0.35916255
C       -0.88132190       0.88132190       0.88132190
C       -1.40789655       0.37650434       2.06588265
C       -2.22808104       1.18427909       2.86391024
C       -2.52389308       2.50130457       2.48615377
C       -1.97241091       2.99601014       1.30081373
C       -1.15715826       2.18848932       0.49535911
N       -3.35870995       3.25487842       3.34853587
C       -3.71602882       4.57608036       3.20155670
O       -3.47701860       5.27537483       2.22043852
C       -4.51265078       5.17925369       4.32017269
C       -4.30486053       4.98616199       5.64104761
C       -3.32116188       4.05170547       6.28593207
N       -5.00590373       5.77617125       6.53061396
C       -5.69657978       6.90635778       6.19902137
O       -6.18924526       7.64015928       7.04546438
N       -5.78022386       7.18091070       4.87282101
C       -5.54606725       6.18286999       3.84541183
H       -5.16464017       6.77529402       3.00519256
C       -6.85290100       5.52124743       3.40135831
C       -7.94529283       5.34822798       4.27228494
C       -9.13221506       4.75545181       3.83431686
C       -9.23757515       4.31169648       2.52092321
C       -8.16606665       4.45366782       1.64299063
C       -6.98123940       5.05494878       2.08061934
H       -1.18799527      -0.64140807       2.37743396
H       -2.62197839       0.76574561       3.78629909
H       -2.15478131       4.00868764       0.95822063
H       -0.74971301       2.59590950      -0.42556881
H       -3.72042214       2.76120855       4.15089592
H       -3.00438458       4.42415328       7.26667793
H       -2.40971902       3.93530514       5.69421295
H       -3.78160490       3.06972618       6.44031119
H       -4.89093114       5.64998316       7.52987576
H       -6.33231901       7.99326773       4.63762518
H       -7.89861718       5.68434092       5.30570712
H       -9.96438226       4.65229546       4.52619587
H       -8.24322537       4.10581718       0.61617280
H       -6.15726567       5.16337216       1.37563761
C      -10.46249159       3.70395594       2.06944658
C      -11.48835911       3.19497324       1.69133491
Br     -13.14710014       2.37199127       1.07996032
C        0.88132190      -0.88132190       0.88132190
C        1.60555091      -0.31781882       1.92691380
C        2.42433410      -1.12823961       2.72369667
C        2.52166804      -2.50583211       2.48385127
C        1.77391463      -3.05632353       1.43899662
C        0.95903151      -2.24760072       0.63437446
N        3.36900479      -3.25748790       3.33563155
C        3.55550866      -4.62120402       3.31695320
O        3.11864806      -5.38988331       2.46430059
C        4.41415930      -5.19123560       4.40668225
C        4.39684371      -4.82754433       5.70768210
C        3.61232642      -3.71086015       6.33561286
N        5.11166282      -5.59527589       6.60575023
C        5.62487712      -6.83316285       6.34391896
O        6.13512521      -7.52410445       7.21563926
N        5.51006142      -7.26214946       5.06174469
C        5.26135918      -6.36338241       3.94960747
H        4.71372492      -6.99310672       3.23829511
C        6.56756391      -5.92489199       3.28305083
C        7.77317084      -5.79453935       3.99809556
C        8.95425890      -5.40816897       3.35955586
C        8.94252539      -5.13035613       1.99731331
C        7.76008533      -5.23350726       1.26913252
C        6.58007186      -5.62856267       1.90817299
H        1.54138853       0.74799155       2.13062417
H        2.97520549      -0.66234313       3.53647447
H        1.79776180      -4.11571677       1.20821100
H        0.39622707      -2.70067637      -0.17684973
H        3.88143888      -2.72685675       4.02423097
H        3.38179006      -3.92888732       7.38453841
H        2.65244603      -3.54752467       5.83926640
H        4.19508301      -2.78349267       6.31306659
H        5.13797032      -5.34505046       7.58776928
H        5.93420504      -8.15856256       4.87044432
H        7.81956805      -6.00482114       5.06427603
H        9.87305020      -5.33394059       3.93588279
H        7.74587635      -5.01474932       0.20458968
H        5.66712384      -5.71047342       1.31867818
C       10.16103808      -4.73551463       1.33934141
C       11.18154246      -4.40483486       0.78828995
Br      12.83161172      -3.87015366      -0.10271366
