157
Properties=species:S:1:pos:R:3 pbc="F F F"
C        0.00000000       0.00000000       0.00000000
C        0.88132190       0.88132190      -0.88132190
C        1.90413180       1.63350305      -0.31264868
C        2.70077407       2.45204345      -1.12345285
C        2.48358384       2.52127600      -2.50649157
C        1.46168898       1.74581586      -3.06172994
C        0.65717221       0.93100686      -2.25282762
N        3.33367731       3.37034731      -3.25809962
C        3.33579867       3.53285876      -4.62500845
O        2.50450900       3.06780540      -5.40051756
C        4.42037308       4.40057607      -5.19112801
C        5.71486924       4.41247910      -4.80472179
C        6.33651790       3.65859266      -3.66368886
N        6.61381356       5.12961029      -5.56926509
C        6.36498413       5.61662743      -6.82034738
O        7.23977717       6.13011513      -7.50497662
N        5.09274525       5.47183474      -7.26937558
C        3.96942022       5.21917561      -6.38575324
H        3.27889748       4.64827751      -7.01795177
C        3.27273174       6.52083067      -5.98194433
C        3.96439258       7.74092215      -5.86049103
C        3.29879642       8.91709002      -5.50609729
C        1.93227870       8.88617264      -5.25174349
Br       1.03225913      10.47853136      -4.77685603
C        1.22660561       7.68948043      -5.34663906
C        1.89283677       6.51424530      -5.70972545
H        2.09011598       1.59139832       0.75749315
H        3.49556116       3.02512912      -0.65333281
H        1.24922264       1.74725182      -4.12521511
H       -0.13608102       0.34624108      -2.70989366
H        4.00384894       3.90394053      -2.72473713
H        7.39295484       3.44282978      -3.85943118
H        5.85406156       2.69308910      -3.49208645
H        6.28755476       4.25682746      -2.74726005
H        7.59066985       5.17753997      -5.30258024
H        4.90995185       5.87696185      -8.17629822
H        5.03314888       7.80244638      -6.05306995
H        3.85773533       9.84703825      -5.43810001
H        0.15877993       7.66031018      -5.14612524
H        1.32076818       5.58977363      -5.78573362
C       -0.88132190      -0.88132190      -0.88132190
C       -0.71222583      -2.26214883      -0.87590887
C       -1.51340062      -3.06553954      -1.69733021
C       -2.49020786      -2.49565722      -2.52548633
C       -2.65625119      -1.10788521      -2.50509838
C       -1.85142497      -0.29948903      -1.69009269
N       -3.26164239      -3.37592107      -3.32456078
C       -4.30823192      -3.03448133      -4.15095263
O       -4.65133561      -1.88913420      -4.43236215
C       -5.04462674      -4.17008891      -4.79736151
C       -5.39087221      -5.33465644      -4.20654149
C       -5.02765360      -5.80448789      -2.82665793
N       -6.23869671      -6.18281210      -4.89118013
C       -6.96336262      -5.84163011      -5.99696621
O       -7.79825439      -6.59152249      -6.48509204
N       -6.72009277      -4.60766038      -6.50620241
C       -5.51766124      -3.85342588      -6.20326194
H       -5.85057681      -2.81167261      -6.28287733
C       -4.43308729      -4.08404854      -7.25837091
C       -4.30801825      -5.29845146      -7.95933603
C       -3.31802559      -5.47464576      -8.92931238
C       -2.42715664      -4.44231334      -9.20072485
Br      -1.09134966      -4.68020663     -10.51609023
C       -2.51649425      -3.23687691      -8.50935394
C       -3.51349073      -3.05895835      -7.54435844
H        0.03802305      -2.72332452      -0.23871968
H       -1.36292232      -4.14151043      -1.66959034
H       -3.40033742      -0.60681796      -3.11453420
H       -1.99585673       0.77713725      -1.70133423
H       -3.00923770      -4.35153891      -3.27174999
H       -5.79034242      -6.48068924      -2.42418413
H       -4.94501132      -4.97894331      -2.11528248
H       -4.08136306      -6.35574188      -2.85453732
H       -6.50781680      -7.07371170      -4.48926155
H       -7.22794913      -4.38494543      -7.35031737
H       -4.98803756      -6.12685474      -7.77377292
H       -3.25859238      -6.41806764      -9.46621357
H       -1.82050355      -2.42818396      -8.71652784
H       -3.57094899      -2.10530251      -7.02002393
C       -0.88132190       0.88132190       0.88132190
C       -0.32959792       1.55352048       1.96716513
C       -1.14520945       2.34937519       2.78168573
C       -2.51484540       2.48185470       2.51465132
C       -3.04775324       1.81177119       1.40971036
C       -2.23646903       1.00820221       0.59633545
N       -3.27150275       3.30709867       3.38352282
C       -4.60563902       3.62426207       3.26376478
O       -5.38769553       3.12831186       2.45682456
C       -5.14454049       4.62042011       4.24711655
C       -4.52246307       5.74444319       4.66516387
C       -3.12652344       6.19344807       4.33882791
N       -5.24799913       6.64564752       5.41904229
C       -6.60541893       6.63086352       5.56567649
O       -7.20838475       7.52971662       6.13676755
N       -7.24847332       5.57047142       5.01501083
C       -6.57342373       4.33356844       4.66735690
H       -7.16474686       3.95555917       3.82482072
C       -6.66219897       3.31074472       5.80256305
C       -6.71901178       3.68960775       7.15718623
C       -6.81638100       2.73392989       8.17167284
C       -6.84184385       1.38257243       7.84577855
Br      -6.97809195       0.09101450       9.21854007
C       -6.76866702       0.97900507       6.51505301
C       -6.67963180       1.93730809       5.49986763
H        0.73085167       1.46567857       2.18919425
H       -0.68688000       2.86682169       3.62032140
H       -4.09686835       1.88101873       1.14380250
H       -2.67916930       0.49122769      -0.25034329
H       -2.76827731       3.69847673       4.16577257
H       -3.04502139       7.28598684       4.36420756
H       -2.81527706       5.88691708       3.33704296
H       -2.42150491       5.79404887       5.07608849
H       -4.81203685       7.49238851       5.76636470
H       -8.24621503       5.54702810       5.16996879
H       -6.70258809       4.73740438       7.44867275
H       -6.87656547       3.05899516       9.20731295
H       -6.78562777      -0.07641629       6.25600386
H       -6.63105192       1.60076091       4.46446260
C        0.88132190      -0.88132190       0.88132190
C        0.50845489      -1.14681337       2.19501527
C        1.32784032      -1.94402447       3.00440559
C        2.52157500      -2.48378511       2.50599131
C        2.87124985      -2.21926713       1.17871781
C        2.05783041      -1.41568573       0.36749055
N        3.29362954      -3.28203527       3.38645942
C        4.45465007      -3.95629614       3.08271967
O        5.08173162      -3.86016958       2.03093075
C        5.01638852      -4.83490299       4.16078565
C        4.30881525      -5.64508863       4.97816626
C        2.81481238      -5.76853301       5.07545403
N        5.00569542      -6.53040112       5.77659240
C        6.32690801      -6.84310462       5.63194631
O        6.86068204      -7.73155325       6.28263363
N        7.00632123      -6.12567427       4.70196007
C        6.53280108      -4.85367817       4.18786981
H        6.94648278      -4.82591854       3.17272542
C        7.12508349      -3.67948036       4.97094289
C        7.45681572      -3.77314829       6.33584174
C        8.01166970      -2.68931896       7.02099507
C        8.22776252      -1.48907445       6.35335787
Br       8.98246854      -0.02519473       7.27998325
C        7.89196265      -1.36290512       5.00785734
C        7.34424188      -2.45154326       4.32102238
H       -0.41481464      -0.73964753       2.59918827
H        1.00984729      -2.13898807       4.02518773
H        3.77612324      -2.61494348       0.73062286
H        2.35887887      -1.21871226      -0.65753742
H        2.94440401      -3.35794353       4.33017906
H        2.52010098      -6.77182630       5.40328851
H        2.32109877      -5.60365882       4.11447952
H        2.42606185      -5.05518749       5.81039293
H        4.51197305      -7.14264805       6.41616896
H        7.99243449      -6.33396770       4.63680973
H        7.30259162      -4.69667509       6.88939851
H        8.27379739      -2.79871907       8.07035713
H        8.05678585      -0.42566480       4.48276471
H        7.09547546      -2.33432101       3.26647897
