170
Properties=species:S:1:pos:R:3 pbc="F F F"
C       -0.61804976       7.46392379      -3.91667307
C        0.84185097       7.02978053      -3.90018199
C        1.27185185       6.25700891      -5.11180391
N        0.33710129       6.06963689      -6.13063413
N        0.80436417       5.32547600      -7.11111162
S        2.36702221       4.82685158      -6.85472430
C        2.51551113       5.64797919      -5.32853742
N        3.65392502       5.61704096      -4.54461268
C        4.27142750       4.29467734      -4.30125146
C        3.40040510       3.41944858      -3.41465140
C        3.03441590       3.82838120      -2.12101393
C        2.23535771       3.01918708      -1.31194167
C        1.79163291       1.79163291      -1.79163291
C        2.14245200       1.36520378      -3.06999453
C        2.94676166       2.17479309      -3.87686833
C        4.25909738       6.76990708      -3.98413866
C        5.10173395       6.72251612      -2.85665820
C        5.64887292       7.87947271      -2.28438688
C        5.36988416       9.12033878      -2.83566611
Br       6.07571169      10.68278704      -2.04508344
C        4.57073174       9.21100477      -3.96689162
C        4.03614990       8.04730288      -4.53640307
H       -0.85209637       8.03991056      -3.01591589
H       -1.28970264       6.59956545      -3.95219851
H       -0.83331176       8.09765300      -4.78431214
H        1.02030908       6.42089185      -3.00628542
H        1.45110889       7.93303389      -3.80683063
H        5.27461813       4.35254910      -3.86416596
H        4.45092723       3.78854348      -5.25912809
H        3.35140277       4.79208521      -1.73238947
H        1.96238540       3.36080224      -0.31657412
H        1.79113386       0.40924683      -3.44932117
H        3.20490559       1.82631775      -4.87510166
H        5.34214883       5.78552157      -2.36333723
H        6.27967977       7.79049135      -1.40309469
H        4.34987174      10.17569398      -4.41580100
H        3.43042635       8.16219590      -5.43351383
C       -8.05538207      -0.15380748      -2.55335757
C       -7.24473418      -1.12236700      -3.40471231
C       -7.22155753      -2.53059462      -2.88851252
N       -7.97120937      -2.81866682      -1.74749613
N       -7.82444290      -4.06553366      -1.35097522
S       -6.79398139      -4.93414053      -2.32047617
C       -6.48419057      -3.60677288      -3.40106429
N       -5.63947715      -3.68320442      -4.49289708
C       -4.30602814      -4.28624038      -4.27508777
C       -3.42289024      -3.40489649      -3.40671835
C       -3.10499628      -2.09039347      -3.78842128
C       -2.29257202      -1.28711992      -2.98679452
C       -1.79163291      -1.79163291      -1.79163291
C       -2.09254998      -3.09164393      -1.39345640
C       -2.90229664      -3.89615895      -2.19996749
C       -5.98533826      -3.23522952      -5.79257535
C       -5.02700415      -2.88907884      -6.76482528
C       -5.38804606      -2.39754352      -8.02714293
C       -6.72719402      -2.24681331      -8.35188172
Br      -7.21534025      -1.55066910     -10.03757283
C       -7.70600159      -2.60669195      -7.43593458
C       -7.33422158      -3.10557376      -6.18006051
H       -8.04584579       0.84435086      -3.00223514
H       -7.64579756      -0.07563765      -1.54062611
H       -9.10006004      -0.47483652      -2.47375682
H       -6.21558175      -0.75237795      -3.47952665
H       -7.67056970      -1.10859127      -4.41181243
H       -3.77146032      -4.51629316      -5.20357971
H       -4.41859852      -5.27315352      -3.80684676
H       -3.50155270      -1.66724871      -4.70707605
H       -2.06540353      -0.27188092      -3.30247731
H       -1.70763877      -3.48554453      -0.45651857
H       -3.13079271      -4.90725465      -1.86827763
H       -3.96180341      -2.96218373      -6.56702049
H       -4.60905076      -2.12787729      -8.73633776
H       -8.76007938      -2.50248468      -7.67880265
H       -8.13359378      -3.39310039      -5.49944191
C       -7.83209158      -0.23727459       3.16773011
C       -7.04056072       0.85300031       3.87825246
C       -7.16755297       2.21357619       3.25953551
N       -8.01973671       2.35397950       2.16365611
N       -8.00221806       3.57276745       1.66596628
S       -6.97551699       4.58926562       2.48381549
C       -6.48238423       3.37848918       3.63115433
N       -5.56831512       3.60353064       4.64373290
C       -4.30673292       4.28389590       4.27672747
C       -3.42265002       3.40371617       3.40813888
C       -2.97395788       2.15073407       3.85911907
C       -2.16146626       1.34826547       3.05675473
C       -1.79163291       1.79163291       1.79163291
C       -2.22350875       3.03014840       1.32399317
C       -3.03307757       3.83443687       2.13090863
C       -5.78078392       3.23610310       5.99625611
C       -4.72895756       3.03990882       6.91204189
C       -4.95580439       2.62508774       8.23184039
C       -6.25115427       2.40244851       8.67228627
Br      -6.55689988       1.80853941      10.43814289
C       -7.32027872       2.61526047       7.81308894
C       -7.08286686       3.03868814       6.49830084
H       -7.71015550      -1.19314343       3.68671800
H       -7.49329033      -0.36537343       2.13414442
H       -8.90201135      -0.00140931       3.14805133
H       -5.98253311       0.56693937       3.89801387
H       -7.38861836       0.88805062       4.91430442
H       -3.72523117       4.62581858       5.14028344
H       -4.53162756       5.21945717       3.74751408
H       -3.26686058       1.77394900       4.83506788
H       -1.83163160       0.38085049       3.42727967
H       -1.94120301       3.37554970       0.33294916
H       -3.36508134       4.79636195       1.74488171
H       -3.69041732       3.17530072       6.62528959
H       -4.10771771       2.47079479       8.89475331
H       -8.34196869       2.45335314       8.14604489
H       -7.95052639       3.21150852       5.86410118
C        0.53047966      -8.18225787       2.04980958
C        1.80422868      -7.47440803       2.49317679
C        1.77102479      -6.96570897       3.90393091
N        0.63460357      -7.23554373       4.66722502
N        0.69032031      -6.68755803       5.86307344
S        2.09299158      -5.83698728       6.11861922
C        2.74886962      -6.19522002       4.54793809
N        3.97520535      -5.73783284       4.10254047
C        4.27136449      -4.30101745       4.29497436
C        3.40239673      -3.42204824       3.41006011
C        3.41993988      -3.55283204       2.01103912
C        2.62030957      -2.74163493       1.20454196
C        1.79163291      -1.79163291       1.79163291
C        1.75834833      -1.64345137       3.17585061
C        2.56348820      -2.45340851       3.98152637
C        4.95379363      -6.56420820       3.49514130
C        5.96508565      -6.06310624       2.65271637
C        6.89218552      -6.90199199       2.01855501
C        6.83370031      -8.27221115       2.21997760
Br       8.05800511      -9.40722891       1.33834816
C        5.87381377      -8.80647762       3.06833674
C        4.95742831      -7.95798820       3.70443934
H        0.63654513      -8.54466115       1.02252380
H       -0.33216879      -7.50843469       2.08579541
H        0.31415110      -9.04593581       2.68856647
H        1.99733818      -6.63492604       1.81522212
H        2.62936447      -8.18281704       2.37879189
H        5.32280226      -4.04311960       4.12541133
H        4.12002903      -4.03018758       5.34838219
H        4.04324751      -4.30186865       1.53076129
H        2.64884249      -2.86604378       0.12487550
H        1.10640348      -0.90626440       3.63703398
H        2.51860569      -2.32621576       5.06150355
H        6.05284852      -5.00284280       2.43531631
H        7.64309658      -6.46676129       1.36340794
H        5.82051544      -9.87770324       3.24314803
H        4.23367071      -8.41672601       4.37573936
C       -0.00445707       0.01189536      -1.78238275
H       -0.66409135       0.67374010      -2.43557963
H        0.65740317      -0.63156657      -2.45157240
C       -0.90989263      -0.90692880      -0.91072765
C        0.90977584       0.90977584      -0.90977584
C       -0.00465871       1.77757030       0.00794375
H       -0.66225468       2.44313916      -0.64384735
H        0.64322798       2.43503045       0.67728295
C       -1.78241447       0.00034974      -0.00472694
H       -2.45427497      -0.65498947       0.64260836
H       -2.43311707       0.67328779      -0.65473579
C       -0.91132561       0.90220522       0.91563759
C       -0.01476271      -0.02253852       1.78660255
H       -0.67934791      -0.69751639       2.42135241
H        0.63392994       0.61504881       2.47327442
C        0.01484550      -1.77751727      -0.01636693
H        0.67870853      -2.42144646      -0.68295456
H       -0.62264859      -2.45592969       0.64226336
C        1.78714474       0.01002794       0.00389507
H        2.44202412       0.67113390       0.66197326
H        2.45385902      -0.65136977      -0.64189061
C        0.91606151      -0.90478549       0.90901405
