109
Properties=species:S:1:pos:R:3 pbc="F F F"
C        0.00000000       0.00000000       0.00000000
C        0.88247663       0.88247663      -0.88247663
C        1.73182644       0.29168870      -1.81527825
C        2.53037973       1.09778011      -2.62325948
C        2.47536317       2.48781470      -2.49236569
C        1.62714540       3.09183646      -1.55124253
C        0.82527884       2.27146904      -0.74561359
C        1.59972271       4.54306902      -1.44498411
N        2.17291332       5.37323335      -2.38387688
C        1.95644603       6.60082760      -1.95955015
N        1.26489239       6.59812186      -0.75535289
C        0.90741131       7.74914772      -0.06622917
C        1.23877989       8.94431084      -0.58133633
Br       0.81276705      10.55017865       0.25719973
C        1.95950177       8.98797690      -1.84823476
C        2.31473328       7.87067487      -2.52999470
C        3.05539815       7.98231045      -3.83719934
C        1.03616034       5.28500192      -0.42834677
H        1.77659082      -0.78881524      -1.92198990
H        3.19563014       0.64890427      -3.35666660
H        3.10410276       3.10545460      -3.13217244
H        0.14631339       2.70415225      -0.01685550
H        0.37249041       7.62505059       0.86649328
H        2.20908004       9.97043383      -2.24281232
H        3.24341770       9.02278885      -4.12223138
H        2.47579467       7.51529464      -4.64072538
H        4.02302385       7.47410114      -3.76834595
H        0.51549167       5.01178366       0.47717796
C       -0.88247663      -0.88247663      -0.88247663
C       -1.77993080      -1.76832539      -0.29053718
C       -2.58809127      -2.56692943      -1.09639862
C       -2.49266090      -2.47548203      -2.48740063
C       -1.58718736      -1.59024407      -3.09279297
C       -0.78110716      -0.78872790      -2.27252641
C       -1.51721775      -1.52551408      -4.54504401
N       -2.46219451      -2.10152045      -5.36630859
C       -2.07338439      -1.84541104      -6.59802835
N       -0.88637191      -1.12481242      -6.60718281
C       -0.23441701      -0.72311346      -7.76525773
C       -0.77058840      -1.03832035      -8.95551832
Br       0.01790324      -0.55358614     -10.57006308
C       -2.02057141      -1.78862700      -8.98651503
C       -2.66604725      -2.18709042      -7.86226519
C       -3.95750167      -2.95669021      -7.96071607
C       -0.53284458      -0.91961426      -5.29705020
H       -1.85902523      -1.84152878       0.79078854
H       -3.29415063      -3.26050448      -0.64654591
H       -3.13218910      -3.10475842      -3.10478227
H       -0.07962534      -0.08194719      -2.70574861
H        0.68800255      -0.16861380      -7.65043646
H       -2.43302710      -2.02422606      -9.96507303
H       -4.26337096      -3.12669356      -8.99837340
H       -4.76297577      -2.40829439      -7.46054454
H       -3.85308296      -3.93421883      -7.47816915
H        0.36638922      -0.38359264      -5.03289395
C       -0.88247663       0.88247663       0.88247663
C       -0.31488960       1.95094374       1.57296004
C       -1.12189361       2.75811586       2.37140986
C       -2.48947195       2.49101483       2.47505677
C       -3.06918042       1.41317399       1.78786998
C       -2.24860430       0.60933642       0.98442076
C       -4.49730937       1.16755288       1.92291359
N       -5.36322788       2.07841824       2.48837743
C       -6.55454133       1.51930267       2.44297978
N       -6.49118648       0.25495813       1.87222252
C       -7.59230971      -0.57382057       1.70429906
C       -8.79806330      -0.14243193       2.10879570
Br     -10.34029785      -1.16941906       1.93486718
C       -8.90577507       1.18315953       2.70677884
C       -7.83747857       2.00121604       2.87670825
C       -8.01481235       3.36235716       3.49773843
C       -5.17864844       0.03172169       1.53913890
H        0.74782762       2.16369190       1.49390120
H       -0.69134354       3.59644107       2.91341640
H       -3.10838332       3.13176259       3.10158389
H       -2.66491155      -0.22428924       0.42669883
H       -7.42239160      -1.54149043       1.25014655
H       -9.89607567       1.50681617       3.01943435
H       -9.05690428       3.56561551       3.76591814
H       -7.69164738       4.14133034       2.79883697
H       -7.41277010       3.44379260       4.40890824
H       -4.86260580      -0.89339509       1.08088666
C        0.88247663      -0.88247663       0.88247663
C        0.29405236      -1.69998624       1.84475478
C        1.09940342      -2.50851257       2.64350333
C        2.48648631      -2.49325763       2.47579963
C        3.08877043      -1.66844709       1.51300687
C        2.26879013      -0.86136566       0.71220568
C        4.53707075      -1.68052372       1.37018137
N        5.33872714      -2.63773668       1.95355973
C        6.57311528      -2.32975092       1.61395758
N        6.60416421      -1.18349761       0.83070532
C        7.77073728      -0.61658450       0.33546642
C        8.94722973      -1.19946034       0.61773700
Br      10.57151632      -0.52533337       0.00889629
C        8.95459675      -2.40915638       1.43196031
C        7.82191205      -2.97160352       1.92188729
C        7.89546167      -4.22531362       2.75413266
C        5.30471338      -0.77063285       0.67416280
H       -0.78436422      -1.71663243       1.97749728
H        0.65209078      -3.15270566       3.39640458
H        3.10337517      -3.13211409       3.10624053
H        2.69856962      -0.22151544      -0.05276391
H        7.67356517       0.28103581      -0.26148164
H        9.92201651      -2.86129610       1.63901359
H        8.92373650      -4.57772392       2.88697752
H        7.32571045      -5.02962969       2.27647455
H        7.47247346      -4.04494989       3.74804760
H        5.05843158       0.11288939       0.10455517
