194
Properties=species:S:1:pos:R:3 pbc="F F F"
C       -0.22393703       1.17611980      -8.79968078
C        0.43809350      -0.09759487      -8.27085838
C        0.04971341      -1.29676002      -9.13375334
C        1.96388002       0.04552180      -8.22281734
O        2.35899068       1.13964621      -7.37866346
C        2.52823404       0.84632023      -6.06257299
O        2.30800270      -0.23148745      -5.53943360
C        3.04625264       2.05025849      -5.35139491
C        3.86159465       2.93184222      -6.07267235
C        4.39980594       4.03570183      -5.43561118
N        4.17722751       4.25997450      -4.12015583
C        3.40253279       3.41941632      -3.41772303
C        3.21152225       3.70315070      -2.07102559
C        2.41701745       2.90174763      -1.24956354
C        1.79108694       1.79108694      -1.79108694
C        1.96590506       1.47909880      -3.13830684
C        2.78667731       2.28247669      -3.97729730
C        5.26149191       5.01943282      -6.12544664
C        5.10923796       5.31579189      -7.49420626
C        5.94394581       6.23553989      -8.13975877
C        6.94440627       6.88261341      -7.42216737
C        7.11253790       6.62412290      -6.06619287
C        6.27530404       5.70287894      -5.42688935
H       -0.00651951       2.03243640      -8.15309213
H       -1.31217343       1.05927208      -8.83919029
H        0.12672681       1.41570665      -9.80941000
H        0.06431671      -0.26364602      -7.25313872
H        0.38475483      -1.16711961     -10.16869680
H       -1.03660504      -1.43364935      -9.14420577
H        0.49896241      -2.21694641      -8.74540744
H        2.35654348       0.26350367      -9.22293193
H        2.44448705      -0.88536158      -7.89667085
H        4.09556053       2.73687973      -7.11436339
H        3.69805483       4.57865821      -1.64531404
H        2.29644458       3.15902944      -0.20063021
H        1.45804751       0.60228860      -3.53337044
H        4.32284244       4.84494596      -8.08072031
H        5.79903711       6.43966489      -9.19751874
H        7.88675173       7.12884130      -5.49470088
H        6.42213110       5.51311882      -4.36393745
C        7.80612946       7.82591799      -8.08640347
C        8.52782263       8.61593559      -8.64270121
Br       9.69473944       9.89332722      -9.54218760
C       -7.67592590      -4.02068491       1.94474726
C       -6.38644769      -4.67242125       2.44751192
C       -6.57184347      -5.18821240       3.87334914
C       -5.94339992      -5.81541998       1.52660074
O       -5.71626001      -5.34769451       0.18665418
C       -4.46465225      -4.89114322      -0.08133179
O       -3.55845227      -4.78297828       0.72548170
C       -4.36162611      -4.55566409      -1.53061584
C       -5.13658116      -5.30137349      -2.42815458
C       -5.03417867      -5.05184950      -3.78509077
N       -4.17481514      -4.12161518      -4.26092752
C       -3.42337233      -3.40511622      -3.41118360
C       -2.56012773      -2.46508454      -3.96048627
C       -1.74061303      -1.65875215      -3.16896344
C       -1.79108694      -1.79108694      -1.79108694
C       -2.64516493      -2.72739084      -1.21075494
C       -3.47138957      -3.56308289      -2.01197884
C       -5.82261222      -5.78599877      -4.79776038
C       -7.11232708      -6.28244414      -4.52446489
C       -7.84081675      -6.99225299      -5.48617473
C       -7.29211154      -7.21182421      -6.74525128
C       -6.02723181      -6.72274519      -7.05287667
C       -5.30372628      -6.01464210      -6.08670395
H       -7.53818762      -3.58894658       0.94812518
H       -7.98842160      -3.21282618       2.61495884
H       -8.49283368      -4.74836140       1.88935162
H       -5.60861988      -3.89913091       2.45394139
H       -7.35662584      -5.95108656       3.92138038
H       -6.85023486      -4.37308814       4.54937162
H       -5.64437599      -5.63270657       4.24965911
H       -6.72825995      -6.57827655       1.46355743
H       -5.04997560      -6.32048920       1.91466847
H       -5.78996266      -6.08934044      -2.06750055
H       -2.52341984      -2.35590558      -5.04270166
H       -1.07821578      -0.93759368      -3.64029478
H       -2.66353067      -2.80411740      -0.12605848
H       -7.58109408      -6.10965179      -3.55776284
H       -8.83312440      -7.36205770      -5.24103864
H       -5.59181537      -6.88301502      -8.03546352
H       -4.31414604      -5.63915603      -6.34588531
C       -8.03919798      -7.94540944      -7.73384350
C       -8.66488287      -8.55978707      -8.56178948
Br      -9.67656242      -9.55318374      -9.90050811
C       -7.68322850       4.00888991      -1.94025486
C       -6.39516756       4.66158830      -2.44539884
C       -6.58294247       5.17540265      -3.87163839
C       -5.95239425       5.80625764      -1.52643273
O       -5.72303945       5.34045469      -0.18619379
C       -4.47054527       4.88576610       0.08081589
O       -3.56520239       4.77772186      -0.72697540
C       -4.36533231       4.55219135       1.53038238
C       -5.14010131       5.29805115       2.42795676
C       -5.03573057       5.05031737       3.78507100
N       -4.17464439       4.12172089       4.26099256
C       -3.42336487       3.40510130       3.41120598
C       -2.55829561       2.46680233       3.96060060
C       -1.73876279       1.66050425       3.16906158
C       -1.79108694       1.79108694       1.79108694
C       -2.64702304       2.72563130       1.21065636
C       -3.47328992       3.56129267       2.01186870
C       -5.82382283       5.78474177       4.79780678
C       -7.11447949       6.27927118       4.52548545
C       -7.84266053       6.98936612       5.48721782
C       -7.29268301       7.21115357       6.74535046
C       -6.02682842       6.72400218       7.05202308
C       -5.30363907       6.01560141       6.08583185
H       -7.54373993       3.57854340      -0.94327431
H       -7.99555389       3.19982750      -2.60909245
H       -8.50095975       4.73563248      -1.88474876
H       -5.61640030       3.88924413      -2.45183502
H       -7.36871823       5.93725533      -3.91964154
H       -6.86116181       4.35910937      -4.54631980
H       -5.65648260       5.62057079      -4.24962995
H       -6.73811157       6.56822888      -1.46336138
H       -5.06006619       6.31194462      -1.91621448
H       -5.79489017       6.08477411       2.06713938
H       -2.52012806       2.35899592       5.04290309
H       -1.07490456       0.94073648       3.64046320
H       -2.66681170       2.80100478       0.12589006
H       -7.58421812       6.10471908       3.55957151
H       -8.83572059       7.35765394       5.24284620
H       -5.59040548       6.88601040       8.03387804
H       -4.31328223       5.64164612       6.34425902
C       -8.03945702       7.94503504       7.73395886
C       -8.66488026       8.55966078       8.56191839
Br      -9.67613673       9.55345861       9.90065892
C        0.15442326      -0.74973813       8.84770217
C        0.84862982       0.46365710       8.22638429
C        0.55983961       1.71962304       9.04649016
C        2.36181254       0.24354131       8.11394794
O        2.66316558      -0.90707917       7.30705559
C        2.78101334      -0.68447463       5.97163929
O        2.58609146       0.37714546       5.40700284
C        3.20638374      -1.94446714       5.29705515
C        4.01399098      -2.83030864       6.02180961
C        4.46784731      -3.98797198       5.41529964
N        4.17053901      -4.26245939       4.12435944
C        3.40248852      -3.41866496       3.41851866
C        3.13234948      -3.75549490       2.09785416
C        2.33684170      -2.95537189       1.27611503
C        1.79108694      -1.79108694       1.79108694
C        2.04642162      -1.42524733       3.11164175
C        2.86890598      -2.22781114       3.94973417
C        5.31535422      -4.97947929       6.11153786
C        5.21690597      -5.20347608       7.49885406
C        6.03831853      -6.13189744       8.14902849
C        6.97081247      -6.86035271       7.41802187
C        7.08395501      -6.67431865       6.04458002
C        6.26039992      -5.74398744       5.40068497
H        0.29936695      -1.64509288       8.23454919
H       -0.92387290      -0.57776055       8.93240130
H        0.54272557      -0.95867638       9.85044152
H        0.43342653       0.59999232       7.22037519
H        0.93895202       1.62232803      10.06970803
H       -0.51703301       1.91013894       9.10112332
H        1.03209102       2.59736501       8.59269744
H        2.79255735       0.05364060       9.10406232
H        2.86891162       1.13332925       7.72021396
H        4.30781520      -2.59846156       7.04052689
H        3.55575432      -4.67288059       1.69339217
H        2.15286955      -3.25531334       0.24792135
H        1.60029416      -0.50694982       3.48646257
H        4.48326833      -4.66752064       8.09771974
H        5.93622073      -6.27881858       9.22118143
H        7.80458992      -7.24276438       5.46293961
H        6.36348257      -5.61173582       4.32396899
C        7.81899258      -7.81272936       8.08672898
C        8.52934343      -8.61034481       8.64677118
Br       9.67792067      -9.90002153       9.55231206
C       -0.00445707       0.01189536      -1.78238275
H       -0.66409135       0.67374010      -2.43557963
H        0.65740317      -0.63156657      -2.45157240
C       -0.90989263      -0.90692880      -0.91072765
C        0.90977584       0.90977584      -0.90977584
C       -0.00465871       1.77757030       0.00794375
H       -0.66225468       2.44313916      -0.64384735
H        0.64322798       2.43503045       0.67728295
C       -1.78241447       0.00034974      -0.00472694
H       -2.45427497      -0.65498947       0.64260836
H       -2.43311707       0.67328779      -0.65473579
C       -0.91132561       0.90220522       0.91563759
C       -0.01476271      -0.02253852       1.78660255
H       -0.67934791      -0.69751639       2.42135241
H        0.63392994       0.61504881       2.47327442
C        0.01484550      -1.77751727      -0.01636693
H        0.67870853      -2.42144646      -0.68295456
H       -0.62264859      -2.45592969       0.64226336
C        1.78714474       0.01002794       0.00389507
H        2.44202412       0.67113390       0.66197326
H        2.45385902      -0.65136977      -0.64189061
C        0.91606151      -0.90478549       0.90901405
