165
Properties=species:S:1:pos:R:3 pbc="F F F"
C        0.00000000       0.00000000       0.00000000
C       -1.13384105       0.26621578      -7.88977676
C       -0.47181052      -1.00749889      -7.36095435
C       -0.86019061      -2.20666405      -8.22384931
C        1.05397600      -0.86438222      -7.31291331
O        1.44908666       0.22974218      -6.46875943
C        1.61833002      -0.06358380      -5.15266897
O        1.39809868      -1.14139147      -4.62952957
C        2.13634862       1.14035447      -4.44149088
C        2.95169063       2.02193820      -5.16276832
C        3.48990191       3.12579780      -4.52570715
N        3.26732348       3.35007048      -3.21025180
C        2.49262877       2.50951230      -2.50781900
C        2.30161823       2.79324667      -1.16112156
C        1.50711342       1.99184361      -0.33965952
C        0.88118291       0.88118291      -0.88118291
C        1.05600104       0.56919477      -2.22840281
C        1.87677329       1.37257266      -3.06739327
C        4.35158789       4.10952880      -5.21554262
C        4.19933394       4.40588787      -6.58430224
C        5.03404179       5.32563586      -7.22985475
C        6.03450225       5.97270938      -6.51226334
Br       7.16512211       7.21036774      -7.38377121
C        6.20263388       5.71421888      -5.15628885
C        5.36540002       4.79297491      -4.51698533
H       -0.91642353       1.12253238      -7.24318810
H       -2.22207745       0.14936806      -7.92928626
H       -0.78317721       0.50580263      -8.89950597
H       -0.84558732      -1.17355005      -6.34323470
H       -0.52514920      -2.07702363      -9.25879277
H       -1.94650907      -2.34355337      -8.23430175
H       -0.41094161      -3.12685043      -7.83550342
H        1.44663945      -0.64640035      -8.31302790
H        1.53458302      -1.79526560      -6.98676683
H        3.18565651       1.82697570      -6.20445937
H        2.78815081       3.66875418      -0.73541001
H        1.38654056       2.24912542       0.70927382
H        0.54814348      -0.30761542      -2.62346641
H        3.41293841       3.93504193      -7.17081629
H        4.88913309       5.52976086      -8.28761471
H        6.97684770       6.21893728      -4.58479686
H        5.51222708       4.60321479      -3.45403343
C       -4.87168107      -5.40879643       3.25832601
C       -3.38465132      -5.76778631       3.27079268
C       -3.05050670      -6.60827570       4.50178774
C       -2.98100389      -6.51682628       1.99532308
O       -3.24183803      -5.72814425       0.82239400
C       -2.24272062      -4.89472290       0.43002833
O       -1.19292719      -4.71428930       1.02097971
C       -2.62180886      -4.24093924      -0.85544586
C       -3.43717272      -4.96220766      -1.73701678
C       -3.77268445      -4.40888502      -2.95983740
N       -3.30030564      -3.19662633      -3.33071380
C       -2.51399241      -2.49899333      -2.49697433
C       -2.06053885      -1.26071543      -2.93473218
C       -1.24598919      -0.44753425      -2.14509311
C       -0.88118291      -0.88118291      -0.88118291
C       -1.31821515      -2.12007784      -0.41530564
C       -2.13544674      -2.96053100      -1.22076148
C       -4.63520459      -5.09837587      -3.94307884
C       -5.65995661      -5.98089490      -3.54867253
C       -6.45739354      -6.64184464      -4.49029421
C       -6.24716946      -6.42440700      -5.84789850
Br      -7.31941114      -7.32003186      -7.11981805
C       -5.25364530      -5.54833169      -6.27116461
C       -4.45926564      -4.89132440      -5.32477022
H       -5.11289126      -4.75237863       2.41597294
H       -5.15099025      -4.88335028       4.17776366
H       -5.49570228      -6.30559720       3.17916809
H       -2.82063901      -4.82865608       3.32519775
H       -3.60810096      -7.55127890       4.50275992
H       -3.29782974      -6.06777881       5.42136925
H       -1.98206682      -6.84691213       4.53126757
H       -3.56960240      -7.43599686       1.89233226
H       -1.92816027      -6.82417357       2.02624959
H       -3.77932123      -5.95920667      -1.47856368
H       -2.35093864      -0.91602957      -3.92534679
H       -0.91187975       0.51318360      -2.52769601
H       -1.01691779      -2.42980801       0.58273133
H       -5.86671495      -6.15712070      -2.49496099
H       -7.23874128      -7.31695278      -4.15081460
H       -5.08521918      -5.36625983      -7.32910283
H       -3.68560128      -4.20864270      -5.67523132
C        3.26251795       4.95023104       5.33443839
C        3.29182768       3.46671875       5.70675388
C        4.53338814       3.15143458       6.53894821
C        2.02693799       3.05839844       6.47104663
O        0.84457807       3.30137770       5.69078864
C        0.45382847       2.29117101       4.87007264
O        1.05269237       1.24516797       4.69376118
C       -0.84092628       2.65260822       4.22465946
C       -1.72334402       3.46651229       4.94654085
C       -2.95414210       3.78586238       4.40140239
N       -3.33165039       3.29908251       3.19691286
C       -2.49711160       2.51400946       2.49883902
C       -2.94190448       2.04530963       1.26877236
C       -2.15225095       1.23054684       0.45581876
C       -0.88118291       0.88118291       0.88118291
C       -0.40811725       1.33372311       2.11175826
C       -1.21336373       2.15127363       2.95210186
C       -3.93894081       4.64570745       5.09201104
C       -3.54594034       5.68201389       5.96156981
C       -4.48878636       6.47689724       6.62384880
C       -5.84632617       6.25240607       6.42074273
Br      -7.11982895       7.32122470       7.31820739
C       -6.26841113       5.24712238       5.55760808
C       -5.32078503       4.45537533       4.89919990
H        2.41208407       5.17779127       4.68358975
H        4.17456698       5.23304230       4.79810155
H        3.18578571       5.58168093       6.22623617
H        3.34287719       2.89466166       4.77231286
H        4.53780504       3.71761115       7.47681384
H        5.44573707       3.40212608       5.98785029
H        4.57479330       2.08553148       6.78697319
H        1.92690123       3.65441715       7.38575107
H        2.07026952       2.00873148       6.78762229
H       -1.45900911       3.82008672       5.93799575
H       -3.93821361       2.32356188       0.93053950
H       -2.54047023       0.88421792      -0.49829599
H        0.59539662       1.04432191       2.41506918
H       -2.49260973       5.89991029       6.12627662
H       -4.15036186       7.26742616       7.28872064
H       -7.32637141       5.06746331       5.38674712
H       -5.67032895       3.67236044       4.22678591
C        7.72049179       1.71942753       1.02108723
C        7.35064679       1.12840240      -0.34059944
C        8.26848649       1.68308831      -1.42840352
C        7.42097204      -0.40310240      -0.32156736
O        6.53051554      -0.95411602       0.66295671
C        5.26040305      -1.20009292       0.24691921
O        4.80619939      -0.93087305      -0.85083566
C        4.50387716      -1.87211995       1.34219686
C        5.22061125      -2.70041208       2.21537382
C        4.54722884      -3.37823838       3.21593965
N        3.20417437      -3.27878466       3.34468674
C        2.50640045      -2.49287323       2.51068640
C        1.13034507      -2.43225100       2.69339040
C        0.30960067      -1.63926559       1.88975029
C        0.88118291      -0.88118291       0.88118291
C        2.25859075      -0.92328695       0.67172092
C        3.09881737      -1.74116447       1.47675738
C        5.22868387      -4.26367028       4.18430515
C        6.55231721      -4.03071662       4.60649021
C        7.19249207      -4.88738694       5.50965340
C        6.51390687      -5.99198733       6.01358077
Br       7.37878586      -7.15189166       7.22858353
C        5.20136318      -6.24292234       5.62885608
C        4.56729856      -5.38312850       4.72493320
H        7.02979502       1.38048109       1.79998303
H        7.67669681       2.81340275       0.99328281
H        8.73450422       1.42960034       1.31722751
H        6.32100138       1.43433772      -0.56256633
H        9.31480201       1.42005825      -1.23812381
H        8.19755410       2.77458815      -1.47872665
H        7.99257614       1.28445178      -2.41041299
H        8.43067658      -0.73357040      -0.05097998
H        7.21033767      -0.82712873      -1.31138215
H        6.29039988      -2.83502274       2.09166895
H        0.68034902      -3.02291132       3.48905466
H       -0.76264218      -1.62313636       2.06589799
H        2.67643844      -0.31372479      -0.12616876
H        7.10507383      -3.16390983       4.24981298
H        8.21501426      -4.67818730       5.81330710
H        4.65985383      -7.09932481       6.02140320
H        3.53866048      -5.59585540       4.43495942
