173
Properties=species:S:1:pos:R:3 pbc="F F F"
C        0.00000000       0.00000000       0.00000000
C       -1.13384105       0.26621578      -7.88977676
C       -0.47181052      -1.00749889      -7.36095435
C       -0.86019061      -2.20666405      -8.22384931
C        1.05397600      -0.86438222      -7.31291331
O        1.44908666       0.22974218      -6.46875943
C        1.61833002      -0.06358380      -5.15266897
O        1.39809868      -1.14139147      -4.62952957
C        2.13634862       1.14035447      -4.44149088
C        2.95169063       2.02193820      -5.16276832
C        3.48990191       3.12579780      -4.52570715
N        3.26732348       3.35007048      -3.21025180
C        2.49262877       2.50951230      -2.50781900
C        2.30161823       2.79324667      -1.16112156
C        1.50711342       1.99184361      -0.33965952
C        0.88118291       0.88118291      -0.88118291
C        1.05600104       0.56919477      -2.22840281
C        1.87677329       1.37257266      -3.06739327
C        4.35158789       4.10952880      -5.21554262
C        4.19933394       4.40588787      -6.58430224
C        5.03404179       5.32563586      -7.22985475
C        6.03450225       5.97270938      -6.51226334
C        6.20263388       5.71421888      -5.15628885
C        5.36540002       4.79297491      -4.51698533
H       -0.91642353       1.12253238      -7.24318810
H       -2.22207745       0.14936806      -7.92928626
H       -0.78317721       0.50580263      -8.89950597
H       -0.84558732      -1.17355005      -6.34323470
H       -0.52514920      -2.07702363      -9.25879277
H       -1.94650907      -2.34355337      -8.23430175
H       -0.41094161      -3.12685043      -7.83550342
H        1.44663945      -0.64640035      -8.31302790
H        1.53458302      -1.79526560      -6.98676683
H        3.18565651       1.82697570      -6.20445937
H        2.78815081       3.66875418      -0.73541001
H        1.38654056       2.24912542       0.70927382
H        0.54814348      -0.30761542      -2.62346641
H        3.41293841       3.93504193      -7.17081629
H        4.88913309       5.52976086      -8.28761471
H        6.97684770       6.21893728      -4.58479686
H        5.51222708       4.60321479      -3.45403343
C        6.89622543       6.91601397      -7.17649945
C        7.61791860       7.70603156      -7.73279719
Br       8.78483542       8.98342319      -8.63228358
C       -3.51177775      -6.50445517       2.99408144
C       -2.00665524      -6.62187690       2.74688720
C       -1.37055313      -7.55864246       3.77220094
C       -1.71173811      -7.11676893       1.32599995
O       -2.25989845      -6.22697569       0.33928588
C       -1.45843920      -5.20034834      -0.04862765
O       -0.36283920      -4.93824352       0.41484594
C       -2.12168275      -4.44586424      -1.15064698
C       -2.96034322      -5.16018813      -2.01586581
C       -3.55736959      -4.50558832      -3.07844896
N       -3.31924192      -3.19476975      -3.31363410
C       -2.51334219      -2.50164227      -2.49497561
C       -2.30785229      -1.15926257      -2.78887161
C       -1.49705881      -0.34265780      -1.99889994
C       -0.88118291      -0.88118291      -0.88118291
C       -1.06607900      -2.22539757      -0.56212206
C       -1.87828352      -3.06694292      -1.37151278
C       -4.46256699      -5.18244869      -4.03164362
C       -5.28208446      -6.26142648      -3.64601310
C       -6.12093430      -6.90574386      -4.56285424
C       -6.15983293      -6.47488979      -5.88475226
C       -5.37454469      -5.40322469      -6.29537221
C       -4.53739230      -4.76389689      -5.37407107
H       -3.97040902      -5.78593667       2.30704875
H       -3.71098818      -6.16004857       4.01445987
H       -4.01240445      -7.46946552       2.85973858
H       -1.57439839      -5.62159597       2.87189703
H       -1.78724129      -8.56923889       3.69986024
H       -1.54051009      -7.19447409       4.79074488
H       -0.28849452      -7.62693185       3.61771500
H       -2.17844776      -8.09480297       1.15998373
H       -0.63534290      -7.25491986       1.16417851
H       -3.11822838      -6.22456641      -1.87429680
H       -2.79558877      -0.73319202      -3.66353422
H       -1.36174231       0.70187899      -2.26652884
H       -0.57127227      -2.61656942       0.32384722
H       -5.29350761      -6.61003134      -2.61525769
H       -6.73936115      -7.73587748      -4.23127003
H       -5.40207402      -5.05439372      -7.32411411
H       -3.92924917      -3.92607678      -5.71414935
C       -7.01948623      -7.13974313      -6.82950949
C       -7.73944587      -7.69655780      -7.62074367
Br      -8.90355973      -8.59688004      -8.90010242
C       -7.94425040      -0.64651650      -0.27558242
C       -7.29752391       0.05530895      -1.47118791
C       -8.10443062      -0.20574584      -2.74169012
C       -7.16799522       1.56379067      -1.22927881
O       -6.37271692       1.83898102      -0.06410967
C       -5.03298322       1.94180892      -0.26737696
O       -4.45676198       1.75341326      -1.32393846
C       -4.36981478       2.34132234       1.00705685
C       -5.09563569       3.14677809       1.89398338
C       -4.49877585       3.57704478       3.06558624
N       -3.21569930       3.25879495       3.35315151
C       -2.50882923       2.49258542       2.50854542
C       -1.19651136       2.20027350       2.85920161
C       -0.37471486       1.40447432       2.05942736
C       -0.88118291       0.88118291       0.88118291
C       -2.19319752       1.15907643       0.50132467
C       -3.03101938       1.98203484       1.30368501
C       -5.19697679       4.42060817       4.05907434
C       -6.58836254       4.33785552       4.26330598
C       -7.24000600       5.15554679       5.19397962
C       -6.50655322       6.06838529       5.94453646
C       -5.12935476       6.16551257       5.77827427
C       -4.48399231       5.34578890       4.84557904
H       -7.34132013      -0.52171732       0.62969414
H       -8.04092545      -1.72120062      -0.46314796
H       -8.94446904      -0.24757539      -0.07476226
H       -6.29536889      -0.37153533      -1.59973623
H       -9.12374525       0.18576316      -2.65288846
H       -8.17077697      -1.27916494      -2.94737273
H       -7.63265556       0.27196381      -3.60690799
H       -8.15477227       2.00524953      -1.04675480
H       -6.75564403       2.07730892      -2.10686870
H       -6.10715727       3.45731946       1.65261484
H       -0.79883741       2.60599730       3.78748029
H        0.64682319       1.20273481       2.37048053
H       -2.56152472       0.73024769      -0.42777794
H       -7.18964796       3.61950813       3.70964055
H       -8.31529699       5.06593096       5.32528072
H       -4.54590077       6.87066014       6.36402093
H       -3.40432322       5.43613348       4.72901860
C       -7.17669301       6.91277072       6.89927512
C       -7.73793509       7.61994352       7.69886874
Br      -8.64541606       8.76338212       8.99174401
C       -3.03894348      -3.65995451       6.40114046
C       -2.81736471      -2.15321480       6.54579486
C       -3.86699851      -1.54795476       7.47603840
C       -1.40915759      -1.84411696       7.06754771
O       -0.40022978      -2.36279658       6.18502148
C       -0.00911220      -1.53932453       5.17720285
O       -0.48567874      -0.44705440       4.92486112
C        1.11480685      -2.17340282       4.42998429
C        1.98194924      -3.00969054       5.14475738
C        3.06384717      -3.57975496       4.49780473
N        3.31556763      -3.31736634       3.19471180
C        2.49516172      -2.51344282       2.50135554
C        2.80658320      -2.28227496       1.16712830
C        2.01669664      -1.47106664       0.35085327
C        0.88118291      -0.88118291       0.88118291
C        0.54424954      -1.09218155       2.21716753
C        1.35318550      -1.90489238       3.05866134
C        4.02057452      -4.48060697       5.17547781
C        3.63121148      -5.32292282       6.23538973
C        4.55105323      -6.15749470       6.88098447
C        5.87992903      -6.16907066       6.47047528
C        6.29470158      -5.36070307       5.41773695
C        5.37035025      -4.52797613       4.77703388
H       -2.33369403      -4.09647947       5.68651150
H       -4.05058487      -3.86952484       6.03763690
H       -2.91171950      -4.17358920       7.36026169
H       -2.93363242      -1.70723220       5.55049755
H       -3.80379264      -1.97935270       8.48105989
H       -4.87696035      -1.72793871       7.09326094
H       -3.73067195      -0.46483976       7.56354356
H       -1.25100495      -2.32355660       8.04071535
H       -1.26649247      -0.76765166       7.22492506
H        1.82638220      -3.18651733       6.20419205
H        3.69533595      -2.74959667       0.74738238
H        2.29834056      -1.31515903      -0.68710743
H       -0.35537686      -0.61741656       2.60195477
H        2.59547721      -5.35584008       6.56747935
H        4.21641531      -6.79400652       7.69608683
H        7.32904054      -5.36675643       5.08478487
H        5.71376162      -3.90149246       3.95422122
C        6.82768927      -7.02433137       7.13671820
C        7.62143848      -7.74061222       7.69469665
Br       8.90486380      -8.89877778       8.59690061
