126
Properties=species:S:1:pos:R:3 pbc="F F F"
C        1.79257585       1.79257585      -1.79257585
C        2.73816757       1.20240803      -2.62797771
C        3.53749536       2.00782557      -3.43540107
C        3.38704586       3.39679491      -3.40114760
C        2.44041204       4.00114752      -2.55878094
C        1.63925343       3.18053257      -1.75276686
C        2.31571385       5.45200179      -2.55227082
N        2.93677670       6.26058750      -3.48108265
C        2.60212396       7.49142873      -3.16193567
C        2.93188996       8.74229598      -3.75390762
C        2.45359479       9.88294166      -3.21770464
C        1.59945113       9.86895674      -2.03476990
C        1.28511795       8.68743501      -1.47545947
N        1.78382584       7.51765857      -2.03988467
C        1.60104273       6.21445972      -1.65111105
H        2.85770652       0.12305898      -2.65904238
H        4.27788390       1.55986377      -4.09321366
H        4.01856310       4.01347657      -4.03955179
H        0.88762721       3.61058681      -1.09791098
H        3.56612857       8.74765564      -4.63339069
H        2.70232627      10.83947502      -3.66793323
H        0.65862963       8.58719023      -0.59855903
H        1.00178827       5.96209206      -0.78902582
C        1.12701143      11.12561600      -1.51399333
C        0.73134318      12.17806813      -1.07784296
Br       0.09158108      13.87979420      -0.37262469
C       -1.79257585      -1.79257585      -1.79257585
C       -2.66871720      -2.69931822      -1.20051788
C       -3.47597350      -3.49859730      -2.00615121
C       -3.40087933      -3.38693764      -3.39717139
C       -2.51737430      -2.47972409      -4.00324210
C       -1.71187884      -1.67816490      -3.18250913
C       -2.46906539      -2.39474571      -5.45617536
N       -3.39269070      -3.01276062      -6.27299552
C       -3.03208522      -2.72027270      -7.50313043
C       -3.59948157      -3.06814703      -8.76046496
C       -3.02045795      -2.63541389      -9.89836925
C       -1.81551645      -1.81282421      -9.87483711
C       -1.27934184      -1.48139279      -8.68727781
N       -1.88789374      -1.93298449      -7.52049085
C       -1.52893218      -1.72518415      -6.21249717
H       -2.73158685      -2.78859449      -0.11962654
H       -4.16530783      -4.20885357      -1.55679993
H       -4.03967134      -4.01786908      -4.01405105
H       -1.02566759      -0.95611374      -3.61434368
H       -4.49543785      -3.67878959      -8.77294746
H       -3.45180190      -2.89806008     -10.85987254
H       -0.38868925      -0.87584604      -8.57984361
H       -0.65785231      -1.14232224      -5.95273160
C       -1.24899585      -1.38868902     -11.12893589
C       -0.77453485      -1.03347580     -12.17924362
Br      -0.00737153      -0.45912606     -13.87750238
C       -1.79257585       1.79257585       1.79257585
C       -1.67007016       3.17825139       1.72023175
C       -2.47889253       3.98078324       2.52104623
C       -3.40302963       3.39291291       3.38904582
C       -3.53026587       1.99729855       3.47277607
C       -2.71320001       1.19947974       2.65987311
C       -4.50487227       1.42443711       4.39067708
N       -5.45844911       2.18194088       5.03805686
C       -6.14608811       1.33611886       5.77328138
C       -7.25114175       1.52866995       6.64828186
C       -7.77926264       0.47397093       7.30100751
C       -7.24225720      -0.87235041       7.13327098
C       -6.19930663      -1.05628406       6.30498986
N       -5.66494563       0.04036846       5.63605498
C       -4.61667879       0.09748387       4.75245083
H       -0.95411502       3.63975471       1.04593815
H       -2.39464701       5.06343949       2.47287482
H       -4.02968925       4.03381970       4.00808251
H       -2.79164511       0.11697897       2.68750092
H       -7.64740179       2.53075733       6.76901578
H       -8.62375543       0.61726894       7.96871015
H       -5.74092378      -2.01979084       6.12324595
H       -4.06109901      -0.78710213       4.47890928
C       -7.85399171      -1.95168328       7.86431233
C       -8.36631936      -2.85562456       8.47655946
Br      -9.19470985      -4.31722115       9.46651128
C        1.79257585      -1.79257585       1.79257585
C        1.20319889      -2.61782365       2.74753077
C        2.00856297      -3.42528694       3.54687210
C        3.39670181      -3.40121147       3.38707508
C        4.00030182      -2.56909987       2.43093881
C        3.17971963      -1.76295729       1.62987594
C        5.45031094      -2.57300669       2.29666883
N        6.25686615      -3.50304559       2.91853511
C        7.48753743      -3.19425348       2.57369744
C        8.73664158      -3.79230700       2.89914497
C        9.87759742      -3.26681563       2.40982803
C        9.86573660      -2.08945273       1.54798844
C        8.68586241      -1.52441660       1.23773342
N        7.51572664      -2.07780213       1.74784030
C        6.21393015      -1.68162605       1.57105730
H        0.12448336      -2.64096166       2.87436286
H        1.56119547      -4.07524232       4.29452354
H        4.01333887      -4.03951723       4.01873536
H        3.60908658      -1.11591388       0.87112454
H        8.74041698      -4.66761946       3.53913847
H       10.83277590      -3.72171748       2.65524114
H        8.58724032      -0.65100809       0.60613049
H        5.96327458      -0.82184686       0.96778471
C       11.12263833      -1.58011604       1.06386639
C       12.17529354      -1.15354656       0.65841417
Br      13.87734797      -0.46381979       0.00283222
C       -0.00445707       0.01189536      -1.78238275
H       -0.66409135       0.67374010      -2.43557963
H        0.65740317      -0.63156657      -2.45157240
C       -0.90989263      -0.90692880      -0.91072765
C        0.90977584       0.90977584      -0.90977584
C       -0.00465871       1.77757030       0.00794375
H       -0.66225468       2.44313916      -0.64384735
H        0.64322798       2.43503045       0.67728295
C       -1.78241447       0.00034974      -0.00472694
H       -2.45427497      -0.65498947       0.64260836
H       -2.43311707       0.67328779      -0.65473579
C       -0.91132561       0.90220522       0.91563759
C       -0.01476271      -0.02253852       1.78660255
H       -0.67934791      -0.69751639       2.42135241
H        0.63392994       0.61504881       2.47327442
C        0.01484550      -1.77751727      -0.01636693
H        0.67870853      -2.42144646      -0.68295456
H       -0.62264859      -2.45592969       0.64226336
C        1.78714474       0.01002794       0.00389507
H        2.44202412       0.67113390       0.66197326
H        2.45385902      -0.65136977      -0.64189061
C        0.91606151      -0.90478549       0.90901405
