101
Properties=species:S:1:pos:R:3 pbc="F F F"
C        0.00000000       0.00000000       0.00000000
C        0.88170086       0.88170086      -0.88170086
C        0.51594506       2.20730102      -1.12139036
C        1.32114930       3.01655646      -1.92808849
C        2.48791196       2.49008899      -2.48997363
C        3.32964230       3.35379311      -3.34281592
N        4.41004479       2.90068060      -3.89490975
N        5.10068461       3.77949187      -4.65509355
C        6.26228914       3.46512343      -5.34142018
C        6.79092228       2.07610007      -5.24569134
N        7.85501453       1.61134755      -5.81969530
N        8.55122580       2.49156286      -6.58412941
H        9.38708164       2.13947555      -7.03994142
C        8.22330110       3.80723961      -6.79105984
O        8.91736351       4.52885459      -7.50159198
C        6.98950056       4.29409691      -6.10855275
Br       6.50792889       6.08921121      -6.36922905
C        2.85060290       1.16026041      -2.24668410
C        2.04510865       0.35438460      -1.44014279
H       -0.39213650       2.61638147      -0.68525757
H        1.02697180       4.04695710      -2.10934370
H        2.99415242       4.39677824      -3.48741644
H        4.79051138       4.74677345      -4.76271634
H        6.20966681       1.37976629      -4.61995375
H        3.75764670       0.74544441      -2.68117337
H        2.33406370      -0.67733918      -1.25618929
C       -0.88170086      -0.88170086      -0.88170086
C       -0.35124374      -2.03877938      -1.45461332
C       -1.15606268      -2.84762362      -2.26210795
C       -2.48796997      -2.48965055      -2.49035406
C       -3.32824399      -3.35060451      -3.34740282
N       -4.56232219      -3.04672220      -3.59659076
N       -5.23509830      -3.90640712      -4.39376461
C       -6.55160379      -3.72993291      -4.78729605
C       -7.28004801      -2.52125313      -4.31141255
N       -8.50505635      -2.19895183      -4.58204919
N       -9.18384567      -3.06042655      -5.38264585
H      -10.14489754      -2.81889462      -5.60270644
C       -8.68460656      -4.22158098      -5.91541302
O       -9.37737700      -4.93930939      -6.63112370
C       -7.26964144      -4.54816356      -5.57434523
Br      -6.55105810      -6.12899861      -6.28631243
C       -3.01545055      -1.32848004      -1.91361682
C       -2.20980175      -0.52279954      -1.10703475
H        0.68500570      -2.31654374      -1.27796450
H       -0.73316973      -3.74582600      -2.70427687
H       -2.85570883      -4.25854949      -3.76408878
H       -4.79221481      -4.75322823      -4.75455813
H       -6.70930635      -1.83695343      -3.66312707
H       -4.05134621      -1.04526236      -2.08765591
H       -2.62733013       0.37730942      -0.66289310
C       -0.88170086       0.88170086       0.88170086
C       -2.06409552       0.36575156       1.41478936
C       -2.87303638       1.17062588       2.22213198
C       -2.49073906       2.48859375       2.48864178
C       -3.35469481       3.33058801       3.34096850
N       -3.04485017       4.56124939       3.59953558
N       -3.90915104       5.23667074       4.38944825
C       -3.75428130       6.56555703       4.74899442
C       -2.56802447       7.30685110       4.23783812
N       -2.26992530       8.54572886       4.47040322
N       -3.13609408       9.22720818       5.26361581
H       -2.91399730      10.19939768       5.45310363
C       -4.27780083       8.71682427       5.82697546
O       -5.00138184       9.41294863       6.53347961
C       -4.57691207       7.28611625       5.52912190
Br      -6.13194211       6.55274493       6.28168210
C       -1.30413729       3.00150054       1.95190958
C       -0.49770138       2.19541884       1.14651582
H       -2.36194695      -0.65898665       1.20654224
H       -3.79211964       0.75969905       2.63145391
H       -4.27227637       2.86357524       3.74249549
H       -4.74257865       4.78611189       4.77131063
H       -1.87929476       6.73357074       3.59652134
H       -1.00164811       4.02635235       2.15626402
H        0.42230100       2.60154697       0.73366785
C        0.88170086      -0.88170086       0.88170086
C        2.06978334      -0.36933457       1.40551853
C        2.87873759      -1.17421770       2.21283896
C        2.49073925      -2.48860522       2.48863010
C        3.35475088      -3.33066340       3.34083705
N        3.03963460      -4.55818658       3.60781397
N        3.90455613      -5.23401824       4.39669565
C        3.74442814      -6.56006176       4.76434285
C        2.55137762      -7.29762567       4.26371040
N        2.24781952      -8.53357068       4.50466716
N        3.11459401      -9.21545241       5.29687165
H        2.88825129     -10.18536720       5.49288011
C        4.26212510      -8.70826409       5.85121137
O        4.98576207      -9.40448217       6.55756584
C        4.56738172      -7.28085525       5.54391325
Br       6.13047189      -6.55191777       6.28397949
C        1.29844641      -2.99792591       1.96117509
C        0.49201427      -2.19183853       1.15578324
H        2.37206172       0.65261092       1.19005174
H        3.80226812      -0.76610374       2.61490073
H        4.27704225      -2.86649936       3.73480549
H        4.74249898      -4.78595428       4.77154791
H        1.86227918      -6.72408394       3.62302373
H        0.99150851      -4.01998080       2.17277517
H       -0.43242854      -2.59516808       0.75017427
