109
Properties=species:S:1:pos:R:3 pbc="F F F"
C        0.00000000       0.00000000       0.00000000
C        0.88170086       0.88170086      -0.88170086
C        0.51594506       2.20730102      -1.12139036
C        1.32114930       3.01655646      -1.92808849
C        2.48791196       2.49008899      -2.48997363
C        3.32964230       3.35379311      -3.34281592
N        4.41004479       2.90068060      -3.89490975
N        5.10068461       3.77949187      -4.65509355
C        6.26228914       3.46512343      -5.34142018
C        6.79092228       2.07610007      -5.24569134
N        7.85501453       1.61134755      -5.81969530
N        8.55122580       2.49156286      -6.58412941
H        9.38708164       2.13947555      -7.03994142
C        8.22330110       3.80723961      -6.79105984
O        8.91736351       4.52885459      -7.50159198
C        6.98950056       4.29409691      -6.10855275
C        2.85060290       1.16026041      -2.24668410
C        2.04510865       0.35438460      -1.44014279
H       -0.39213650       2.61638147      -0.68525757
H        1.02697180       4.04695710      -2.10934370
H        2.99415242       4.39677824      -3.48741644
H        4.79051138       4.74677345      -4.76271634
H        6.20966681       1.37976629      -4.61995375
H        3.75764670       0.74544441      -2.68117337
H        2.33406370      -0.67733918      -1.25618929
C        6.62000406       5.67143799      -6.30856240
C        6.31055074       6.82496116      -6.47607048
Br       5.81019089       8.69011055      -6.74691687
C       -0.88170086      -0.88170086      -0.88170086
C       -0.40623423      -2.11892746      -1.31947474
C       -1.21118102      -2.92796648      -2.12664676
C       -2.48792709      -2.48983609      -2.49021140
C       -3.32862783      -3.35203985      -3.34558364
N       -4.51101846      -2.97681464      -3.71780206
N       -5.18971883      -3.84555680      -4.49999439
C       -6.45353305      -3.60254989      -5.01274981
C       -7.11412598      -2.30698702      -4.69160069
N       -8.28435925      -1.91591200      -5.08578612
N       -8.96892222      -2.78625744      -5.87173841
H       -9.88734499      -2.49133605      -6.18781756
C       -8.52786236      -4.02186048      -6.27187773
O       -9.22094303      -4.74131894      -6.98554812
C       -7.17456959      -4.42582717      -5.79175347
C       -2.96038987      -1.24845475      -2.04870280
C       -2.15480936      -0.44269767      -1.24212901
H        0.58723078      -2.45913703      -1.03759629
H       -0.83124011      -3.88901876      -2.46301372
H       -2.90209421      -4.32444856      -3.65180433
H       -4.79186861      -4.75037586      -4.75775670
H       -6.53993425      -1.61702290      -4.05242970
H       -3.95325301      -0.90263835      -2.32837312
H       -2.52941246       0.52000393      -0.90350529
C       -6.68496057      -5.71795042      -6.19709346
C       -6.27491302      -6.80010365      -6.53656571
Br      -5.61190081      -8.54985388      -7.08546361
C       -0.88170086       0.88170086       0.88170086
C       -2.20531700       0.51242507       1.12689437
C       -3.01458816       1.31765721       1.93354888
C       -2.49068718       2.48897325       2.48831415
C       -3.35588621       3.33335582       3.33700929
N       -2.91423942       4.43410040       3.85729533
N       -3.79385368       5.12616487       4.61525147
C       -3.50607703       6.33494769       5.22780803
C       -2.14839047       6.91917760       5.04514562
N       -1.71221988       8.03397898       5.53985852
N       -2.59332301       8.73176540       6.30182965
H       -2.26380264       9.60765877       6.69503719
C       -3.88201094       8.35595799       6.58363163
O       -4.60668869       9.05545426       7.28566713
C       -4.33656792       7.06485127       5.99073103
C       -1.16278840       2.85508798       2.23967103
C       -0.35648652       2.04883780       1.43431173
H       -2.61306393      -0.39802238       0.69446099
H       -4.04403504       1.02178758       2.11744997
H       -4.39099817       2.98389761       3.50345131
H       -4.74113835       4.78051376       4.77834906
H       -1.45065130       6.33542870       4.42330685
H       -0.74981545       3.76540164       2.66904739
H        0.67375950       2.34041466       1.24625865
C       -5.68571981       6.64534240       6.26894225
C       -6.81563451       6.29400371       6.50194415
Br      -8.64261103       5.72591877       6.87868851
C        0.88170086      -0.88170086       0.88170086
C        2.17840312      -0.47097956       1.19525376
C        2.98761179      -1.27611103       2.00207143
C        2.49071035      -2.48887880       2.48838543
C        3.35570606      -3.33261888       3.33792638
N        2.93939175      -4.47027982       3.79596357
N        3.81611024      -5.15766325       4.56149654
C        3.55421255      -6.40091292       5.11370728
C        2.22984007      -7.03014364       4.85272998
N        1.82057532      -8.18057554       5.28490650
N        2.69885669      -8.87377757       6.05428381
H        2.39027717      -9.77733207       6.39888937
C        3.95897895      -8.45940939       6.40321221
O        4.68351612      -9.15801876       7.10627521
C        4.38324166      -7.12821091       5.88069765
C        1.18973861      -2.89647136       2.17133744
C        0.38340176      -2.09025970       1.36597458
H        2.56521093       0.47175850       0.81605012
H        3.99603892      -0.94774248       2.23949119
H        4.36828084      -2.94981012       3.56025614
H        4.74128711      -4.78197457       4.77673949
H        1.53378386      -6.44932004       4.22628295
H        0.79782804      -3.83915627       2.54728018
H       -0.62583569      -2.41420377       1.12454573
C        5.70208127      -6.66768538       6.23023781
C        6.80660944      -6.28199524       6.52297769
Br       8.59253808      -5.65836692       6.99631331
