113
Properties=species:S:1:pos:R:3 pbc="F F F"
C        0.00000000       0.00000000       0.00000000
C        0.88179704       0.88179704      -0.88179704
C        0.30097086       1.89027062      -1.65069943
C        1.10287567       2.69968145      -2.45935312
C        2.48327331       2.49575053      -2.49099892
O        3.26748907       3.28680203      -3.28319053
C        3.06445826       1.48633979      -1.71592964
C        4.52680738       1.27843500      -1.73963958
N        5.08470111       0.33947631      -1.03989429
N        6.43087020       0.25857714      -1.14047888
C        7.20398721      -0.70422424      -0.51382123
C        6.52185209      -1.73575481       0.31425407
N        7.08597546      -2.71238550       0.95308009
N        8.43788633      -2.78834534       0.85040172
H        8.89178332      -3.54982762       1.34491483
C        9.23741844      -1.92324474       0.14728595
O       10.45616860      -2.06854999       0.12074136
C        8.54067172      -0.81857408      -0.57195484
C        2.25880261       0.67353188      -0.90920443
H       -0.77409506       2.05261042      -1.62572522
H        0.63334087       3.47993586      -3.05154706
H        2.70502798       3.92028485      -3.76151977
H        5.12551418       1.95421847      -2.37674938
H        6.95850463       0.93407043      -1.69760246
H        5.42520380      -1.65232407       0.38592558
H        2.70487003      -0.11358043      -0.30592786
C        9.35531279       0.10095559      -1.32323715
C       10.03757469       0.87106169      -1.95243608
Br      11.14073448       2.11625812      -2.96979754
C       -0.88179704      -0.88179704      -0.88179704
C       -0.36509844      -2.06322997      -1.41361251
C       -1.16725679      -2.87351465      -2.22113880
C       -2.48415507      -2.49667127      -2.48919641
O       -3.26836062      -3.28879719      -3.28032382
C       -3.00187508      -1.31333411      -1.95151851
C       -4.39948676      -0.92059036      -2.22480484
N       -4.89519386       0.17919947      -1.74807732
N       -6.18821345       0.42052382      -2.06223659
C       -6.88147307       1.56090132      -1.69301244
C       -6.16536926       2.60749606      -0.91397001
N       -6.65341433       3.73573125      -0.50282679
N       -7.95253425       3.97265530      -0.81926032
H       -8.34635295       4.85365000      -0.50433792
C       -8.77475586       3.12357870      -1.51571059
O       -9.94291690       3.42247222      -1.74643257
C       -8.16570320       1.84020502      -1.96855431
C       -2.19527133      -0.50050985      -1.14575773
H        0.65993492      -2.36011352      -1.20406199
H       -0.74810658      -3.78983104      -2.62688616
H       -2.75084465      -4.05625682      -3.57973113
H       -5.00486890      -1.60064233      -2.85097080
H       -6.73447551      -0.25643072      -2.59927128
H       -5.11333433       2.39217135      -0.66579118
H       -2.59185113       0.42111892      -0.72648526
C       -9.00466453       0.93247132      -2.70731233
C       -9.70729464       0.17224434      -3.32602217
Br     -10.84338811      -1.05697838      -4.32642365
C       -0.88179704       0.88179704       0.88179704
C       -1.97448377       0.32289683       1.54456032
C       -2.78464753       1.12499767       2.35226503
C       -2.49368740       2.48273614       2.49359921
O       -3.28716086       3.26758249       3.28273828
C       -1.39484666       3.04063686       1.83124417
C       -1.07930861       4.47496229       1.99061107
N       -0.07392006       5.01556016       1.37459150
N        0.11451204       6.33373169       1.61070658
C        1.09862531       7.10129987       1.01090962
C        2.00557830       6.45160011       0.02582140
N        2.96368588       7.02054621      -0.63635046
N        3.15003626       8.34371550      -0.39453996
H        3.89643100       8.80154072      -0.90806884
C        2.42579915       9.10657200       0.48611490
O        2.67542688      10.29816048       0.64414365
C        1.33374717       8.40653985       1.22125980
C       -0.58640890       2.23611904       1.01901098
H       -2.20164352      -0.73529239       1.43788945
H       -3.63144113       0.67278719       2.86059546
H       -4.00785467       2.72782790       3.65115002
H       -1.73350195       5.06804783       2.65493226
H       -0.47763847       6.83966676       2.27287228
H        1.83799790       5.37686126      -0.15190921
H        0.26799566       2.66466606       0.50054707
C        0.55331581       9.18496491       2.14785643
C       -0.10029546       9.83689590       2.92388111
Br      -1.15712960      10.89101317       4.17864738
C        0.88179704      -0.88179704       0.88179704
C        2.03822934      -0.35074394       1.45296763
C        2.84868404      -1.15299991       2.26022628
C        2.49426544      -2.48277372       2.49298359
O        3.28795441      -3.26787672       3.28165049
C        1.33177378      -3.01246250       1.92249141
C        0.94978802      -4.41625105       2.17884290
N       -0.11600509      -4.93147788       1.64859892
N       -0.36076677      -6.22252388       1.96816910
C       -1.41651914      -6.96437232       1.46573101
C       -2.34156155      -6.31805965       0.49534511
N       -3.36432038      -6.86666559      -0.08183533
N       -3.60695235      -8.16250822       0.24358341
H       -4.40435892      -8.60432033      -0.20292054
C       -2.87597440      -8.91692168       1.12594047
O       -3.17940065     -10.08248018       1.36379771
C       -1.70859095      -8.24127144       1.76137198
C        0.52291389      -2.20813496       1.11049007
H        2.31504175       0.68581357       1.27501241
H        3.74559671      -0.72270876       2.69651831
H        4.05593758      -2.75066135       3.58023366
H        1.60780408      -5.00898093       2.83969703
H        0.23991111      -6.72499052       2.62527587
H       -2.12726488      -5.26543446       0.24878457
H       -0.38089704      -2.61494514       0.66316936
C       -0.91983258      -9.01192126       2.68741685
C       -0.25924744      -9.65734047       3.46297943
Br       0.80886285     -10.70092876       4.71699852
