174
Properties=species:S:1:pos:R:3 pbc="F F F"
C        1.79135062       1.79135062      -1.79135062
C        3.11333246       1.42924958      -2.02821891
C        3.92067445       2.24667114      -2.82419058
C        3.41918341       3.42850929      -3.39439376
C        2.08455658       3.77006359      -3.14380895
C        1.27146027       2.95638657      -2.34774132
N        4.31624420       4.25309296      -4.11260196
C        4.16577742       5.57516020      -4.41085488
C        3.74342358       6.71325429      -3.71736860
N        3.75390686       7.83556635      -4.53775709
C        4.23855332       7.40059185      -5.67561358
C        4.49540303       8.14595870      -6.87737515
N        4.95839967       7.57336982      -7.95695908
C        5.19061030       6.20922346      -7.90690182
C        4.98448217       5.44741898      -6.81753303
N        4.50454352       6.05635239      -5.66612542
C        3.30654870       6.83095348      -2.32801940
C        3.79689586       5.98381624      -1.32560616
C        3.29735306       6.06524292      -0.02336310
C        2.33748231       7.01622924       0.31483356
C        1.88133187       7.90391060      -0.65638750
C        2.36933131       7.81432810      -1.95940235
O        1.88383171       8.73966789      -2.84790003
H        3.52979511       0.52669695      -1.58921062
H        4.96065416       1.96538753      -2.97237821
H        1.65251695       4.67292071      -3.56727816
H        0.24091709       3.24852842      -2.16360491
H        4.95577785       3.68385062      -4.66304722
H        4.29561505       9.22937788      -6.88144626
H        5.55663337       5.76240529      -8.82880933
H        5.16170114       4.38162380      -6.80670197
H        4.55657829       5.24258018      -1.55607698
H        1.94615265       7.07993448       1.32631371
H        1.14793884       8.66508586      -0.40421642
H        2.44908251       8.68214489      -3.64916646
C        3.76938063       5.14224837       0.97607226
C        4.16470371       4.36924044       1.81309938
Br       4.80390771       3.11935199       3.16650143
C       -1.79135062      -1.79135062      -1.79135062
C       -1.56167517      -3.16212104      -1.84700474
C       -2.36205133      -3.96318312      -2.66630173
C       -3.39975660      -3.40859026      -3.43373960
C       -3.61316374      -2.02675113      -3.35851425
C       -2.81536480      -1.21950467      -2.54071870
N       -4.10981184      -4.26345620      -4.30867107
C       -4.86113056      -3.90271277      -5.38794917
C       -4.71513618      -3.00727173      -6.45163856
N       -5.83509730      -3.01688886      -7.27524414
C       -6.60577311      -3.94572414      -6.76326150
C       -7.88600512      -4.39963026      -7.23310151
N       -8.56284466      -5.32294455      -6.60293936
C       -8.00319848      -5.85155123      -5.45198587
C       -6.80728388      -5.48548712      -4.95666318
N       -6.08143357      -4.51378399      -5.63180377
C       -3.59761826      -2.11531495      -6.75258836
C       -2.28161887      -2.43292271      -6.39177667
C       -1.24653859      -1.52203352      -6.61738696
C       -1.49271575      -0.30249515      -7.24366708
C       -2.78555114       0.00438738      -7.66046620
C       -3.82142733      -0.89825646      -7.42337798
O       -5.05881517      -0.52772241      -7.88486204
H       -0.75776214      -3.61492474      -1.27301580
H       -2.14785835      -5.02788053      -2.72268102
H       -4.40685737      -1.55449320      -3.93136526
H       -2.99818110      -0.14868348      -2.50618585
H       -4.26314358      -5.16920247      -3.87032964
H       -8.30178040      -3.95386718      -8.15079161
H       -8.60249800      -6.60298768      -4.94236231
H       -6.39679378      -5.90413528      -4.04909784
H       -2.05677369      -3.38285521      -5.91560655
H       -0.68971482       0.40814864      -7.41820724
H       -2.99089822       0.94256007      -8.16890298
H       -5.63004464      -1.32461982      -7.82572940
C        0.08769007      -1.84255315      -6.18069365
C        1.20510657      -2.11098834      -5.81496300
Br       3.01187455      -2.54502534      -5.22360748
C       -1.79135062       1.79135062       1.79135062
C       -3.15679730       1.87461098       1.53939267
C       -3.95753739       2.69391426       2.34008453
C       -3.40800971       3.43388244       3.40019432
C       -2.03154895       3.33114178       3.63573839
C       -1.22464536       2.51318866       2.83775415
N       -4.26002893       4.31127083       4.11063936
C       -3.89403515       5.37121197       4.88654537
C       -2.97824133       6.42157871       4.77422643
N       -2.99322546       7.22606083       5.90794400
C       -3.94382866       6.71719213       6.65373796
C       -4.41176051       7.17297393       7.93400244
N       -5.35723073       6.54746089       8.58403695
C       -5.89557359       5.41550993       7.99565206
C       -5.51735011       4.93433873       6.79774534
N       -4.52189236       5.60481332       6.10031564
C       -2.06209396       6.72601356       3.67741405
C       -2.36297579       6.39318469       2.35015778
C       -1.43060919       6.62057261       1.33477728
C       -0.20503774       7.22138168       1.61245857
C        0.08647499       7.61076102       2.91734393
C       -0.83785767       7.37174236       3.93346175
O       -0.48099286       7.80563523       5.18477154
H       -3.60532074       1.32229753       0.71808442
H       -5.01725669       2.77234072       2.10882249
H       -1.56341956       3.88215485       4.44714141
H       -0.15788968       2.45702989       3.03813086
H       -5.17561646       3.88612150       4.24093774
H       -3.95771484       8.07561034       8.37311401
H       -6.66582498       4.90884497       8.57317804
H       -5.94420809       4.04126509       6.36455372
H       -3.31683684       5.93741403       2.10098457
H        0.52225850       7.39723203       0.82479989
H        1.02946581       8.09932390       3.14738303
H       -1.28854456       7.75059253       5.74125677
C       -1.73537718       6.21224486      -0.01206530
C       -1.99062037       5.87027036      -1.14004596
Br      -2.40332701       5.31732653      -2.96389528
C        1.79135062      -1.79135062       1.79135062
C        1.98000352      -3.12940737       1.46139006
C        2.77627855      -3.93613215       2.27912548
C        3.39468624      -3.41819621       3.42920402
C        3.19208726      -2.06768713       3.73865473
C        2.39598861      -1.25510389       2.92449566
N        4.11092870      -4.31209483       4.25891558
C        4.45175394      -4.13298847       5.56705009
C        3.80399917      -3.65851090       6.71153640
N        4.65614203      -3.66110872       7.80997954
C        5.76663943      -4.19086301       7.35725630
C        6.98186612      -4.46142656       8.07544420
N        8.03073938      -4.97174895       7.48624024
C        7.93436109      -5.24096204       6.13141245
C        6.82951762      -5.02482160       5.39509496
N        5.71042007      -4.49444676       6.02215450
C        2.43161071      -3.17814470       6.85576616
C        1.39142706      -3.66285740       6.05203379
C        0.10679065      -3.12344320       6.15572523
C       -0.17619393      -2.12755643       7.08751549
C        0.83303673      -1.67495367       7.93363958
C        2.11853354      -2.20308767       7.82144057
O        3.04703909      -1.71768046       8.70668008
H        1.50323638      -3.55829745       0.58416886
H        2.88667179      -4.98754376       2.02420434
H        3.65377845      -1.62277115       4.61616622
H        2.24972558      -0.21176495       3.19155990
H        4.62619618      -4.98328217       3.69319734
H        7.02319073      -4.23122287       9.15202558
H        8.83210402      -5.64622893       5.66951504
H        6.78259213      -5.23177841       4.33565637
H        1.57856436      -4.44963635       5.32703475
H       -1.17389104      -1.70524753       7.16841692
H        0.62405367      -0.91324454       8.67994291
H        3.82994841      -2.30746103       8.64298442
C       -0.93211070      -3.59208778       5.27557965
C       -1.80219059      -3.98457762       4.53845774
Br      -3.20903617      -4.61920050       3.34659394
C       -0.00445707       0.01189536      -1.78238275
H       -0.66409135       0.67374010      -2.43557963
H        0.65740317      -0.63156657      -2.45157240
C       -0.90989263      -0.90692880      -0.91072765
C        0.90977584       0.90977584      -0.90977584
C       -0.00465871       1.77757030       0.00794375
H       -0.66225468       2.44313916      -0.64384735
H        0.64322798       2.43503045       0.67728295
C       -1.78241447       0.00034974      -0.00472694
H       -2.45427497      -0.65498947       0.64260836
H       -2.43311707       0.67328779      -0.65473579
C       -0.91132561       0.90220522       0.91563759
C       -0.01476271      -0.02253852       1.78660255
H       -0.67934791      -0.69751639       2.42135241
H        0.63392994       0.61504881       2.47327442
C        0.01484550      -1.77751727      -0.01636693
H        0.67870853      -2.42144646      -0.68295456
H       -0.62264859      -2.45592969       0.64226336
C        1.78714474       0.01002794       0.00389507
H        2.44202412       0.67113390       0.66197326
H        2.45385902      -0.65136977      -0.64189061
C        0.91606151      -0.90478549       0.90901405
