74
Properties=species:S:1:pos:R:3 pbc="F F F"
C        2.37156646       5.67199009      -3.47043078
C        3.29127892       4.79482377      -2.63975621
N        2.80794541       3.43582312      -2.53809219
N        1.99286024       3.08362023      -1.52430185
C        1.78877968       1.78877968      -1.78877968
N        2.42426360       1.31453389      -2.90289867
C        3.05822175       2.37134006      -3.35586676
Br       4.11350268       2.36042273      -4.89748378
H        2.76240301       6.69286970      -3.51918490
H        1.36674395       5.71102638      -3.03690663
H        2.27852768       5.29278702      -4.49325331
H        3.38026626       5.19263900      -1.62221327
H        4.29832479       4.77163642      -3.06803205
C       -4.98067470      -1.90825994      -4.62505268
C       -3.57193102      -2.47171929      -4.68220859
N       -2.92689596      -2.46687203      -3.38809272
N       -2.19968861      -1.40046596      -3.00062775
C       -1.78877968      -1.78877968      -1.78877968
N       -2.21535750      -3.02797858      -1.39836008
C       -2.93001011      -3.43263187      -2.42278659
Br      -3.80544510      -5.08192939      -2.48403470
H       -5.43468358      -1.91919042      -5.62058361
H       -4.97739228      -0.87507622      -4.26220845
H       -5.61587761      -2.49505690      -3.95363351
H       -2.95200002      -1.87863231      -5.36448620
H       -3.57874495      -3.49887145      -5.06037685
C       -5.11110771       1.93300906       4.46987055
C       -3.68150090       2.42076489       4.62359310
N       -2.97255546       2.44571356       3.36359170
N       -2.27899883       1.36372180       2.95806169
C       -1.78877968       1.78877968       1.78877968
N       -2.13458406       3.06546590       1.44164621
C       -2.87995394       3.45591008       2.44956456
Br      -3.67663152       5.14265446       2.55212321
H       -5.61403703       1.91885708       5.44156350
H       -5.13933930       0.91973828       4.05559938
H       -5.68228286       2.58307688       3.79920828
H       -3.12641562       1.76467343       5.30402948
H       -3.65786201       3.42745770       5.05267355
C        2.52722095      -5.73270924       3.25405713
C        3.43602993      -4.74356363       2.54626534
N        2.86825079      -3.41456915       2.49904077
N        2.09760872      -3.04671358       1.45646002
C        1.78877968      -1.78877968       1.78877968
N        2.31756985      -1.35221445       2.97191186
C        2.99209333      -2.39475799       3.39857725
Br       3.94316888      -2.42185678       5.00638353
H        2.98314048      -6.72737757       3.26393956
H        1.55728854      -5.80627684       2.75111159
H        2.34306284      -5.43120559       4.29029959
H        3.61709105      -5.06421869       1.51380879
H        4.40959793      -4.68527308       3.04312224
C       -0.00445707       0.01189536      -1.78238275
H       -0.66409135       0.67374010      -2.43557963
H        0.65740317      -0.63156657      -2.45157240
C       -0.90989263      -0.90692880      -0.91072765
C        0.90977584       0.90977584      -0.90977584
C       -0.00465871       1.77757030       0.00794375
H       -0.66225468       2.44313916      -0.64384735
H        0.64322798       2.43503045       0.67728295
C       -1.78241447       0.00034974      -0.00472694
H       -2.45427497      -0.65498947       0.64260836
H       -2.43311707       0.67328779      -0.65473579
C       -0.91132561       0.90220522       0.91563759
C       -0.01476271      -0.02253852       1.78660255
H       -0.67934791      -0.69751639       2.42135241
H        0.63392994       0.61504881       2.47327442
C        0.01484550      -1.77751727      -0.01636693
H        0.67870853      -2.42144646      -0.68295456
H       -0.62264859      -2.45592969       0.64226336
C        1.78714474       0.01002794       0.00389507
H        2.44202412       0.67113390       0.66197326
H        2.45385902      -0.65136977      -0.64189061
C        0.91606151      -0.90478549       0.90901405
