53
Properties=species:S:1:pos:R:3 pbc="F F F"
C        0.00000000       0.00000000       0.00000000
C        1.46166243       4.76208606      -2.56052676
C        2.38137490       3.88491974      -1.72985219
N        1.89804138       2.52591910      -1.62818816
N        1.08295621       2.17371620      -0.61439783
C        0.87887566       0.87887566      -0.87887566
N        1.51435958       0.40462986      -1.99299464
C        2.14831773       1.46143604      -2.44596273
Br       3.20359865       1.45051871      -3.98757975
H        1.85249899       5.78296568      -2.60928087
H        0.45683992       4.80112236      -2.12700261
H        1.36862366       4.38288300      -3.58334929
H        2.47036224       4.28273498      -0.71230925
H        3.38842076       3.86173239      -2.15812802
C       -3.98862181      -0.99035237      -3.80530107
C       -2.59642130      -1.59622900      -3.80349652
N       -1.98964946      -1.57126574      -2.49123345
N       -1.24229051      -0.51539243      -2.11338731
C       -0.87887566      -0.87887566      -0.87887566
N       -1.35382069      -2.09274854      -0.46541485
C       -2.05007755      -2.50700614      -1.49863281
Br      -2.97263009      -4.13109647      -1.53797055
H       -4.41344988      -1.01798521      -4.81331045
H       -3.96483041       0.05275417      -3.47288865
H       -4.66057290      -1.53783386      -3.13644918
H       -1.93922167      -1.04234356      -4.48384123
H       -2.62311133      -2.63366763      -4.15150222
C       -4.14890095       1.01126236       3.62411193
C       -2.72679921       1.53070589       3.73864172
N       -2.04398444       1.54404811       2.46411609
N       -1.33667047       0.46812482       2.06627495
C       -0.87887566       0.87887566       0.87887566
N       -1.25770336       2.14096377       0.51331695
C       -1.99051539       2.53693997       1.52826114
Br      -2.81940281       4.20907887       1.61321544
H       -4.63180115       1.00693934       4.60600504
H       -4.16466283      -0.01065580       3.23095785
H       -4.74665578       1.63582403       2.95237613
H       -2.14480758       0.90000015       4.42059873
H       -2.71519553       2.54626026       4.14682540
C        1.50883102      -4.78393382       2.49151041
C        2.42678654      -3.87044174       1.69891854
N        1.91695908      -2.51992021       1.61526935
N        1.11581548      -2.16329983       0.59195494
C        0.87887566      -0.87887566       0.87887566
N        1.48088882      -0.41526827       2.01582700
C        2.12757175      -1.46805024       2.46009450
Br       3.15014510      -1.46791545       4.02363657
H        1.92013100      -5.79728197       2.52733257
H        0.51428091      -4.83462479       2.03605919
H        1.38655355      -4.42851889       3.51978350
H        2.54529941      -4.24465673       0.67545033
H        3.42400409      -3.83543528       2.14884181
