61
Properties=species:S:1:pos:R:3 pbc="F F F"
C        0.00000000       0.00000000       0.00000000
C        1.46166243       4.76208606      -2.56052676
C        2.38137490       3.88491974      -1.72985219
N        1.89804138       2.52591910      -1.62818816
N        1.08295621       2.17371620      -0.61439783
C        0.87887566       0.87887566      -0.87887566
N        1.51435958       0.40462986      -1.99299464
C        2.14831773       1.46143604      -2.44596273
H        1.85249899       5.78296568      -2.60928087
H        0.45683992       4.80112236      -2.12700261
H        1.36862366       4.38288300      -3.58334929
H        2.47036224       4.28273498      -0.71230925
H        3.38842076       3.86173239      -2.15812802
C        2.96170609       1.45302119      -3.63420874
C        3.64291884       1.44597375      -4.62936476
Br       4.74438225       1.43457865      -6.23844789
C       -3.88929816      -0.98749241      -3.90748468
C       -2.52015855      -1.63992459      -3.83606369
N       -1.95786207      -1.58942617      -2.50486040
N       -1.18707524      -0.54693186      -2.13706315
C       -0.87887566      -0.87887566      -0.87887566
N       -1.41004812      -2.06058531      -0.44135066
C       -2.08491760      -2.48704409      -1.48375481
H       -4.28030988      -1.03613302      -4.92830263
H       -3.84011591       0.06525766      -3.61010663
H       -4.60246459      -1.48791841      -3.24447294
H       -1.82110960      -1.13300527      -4.51129159
H       -2.57150612      -2.68746395      -4.14931111
C       -2.83818994      -3.71424345      -1.49650262
C       -3.46905553      -4.74202292      -1.50717891
Br      -4.48911182      -6.40385539      -1.52444158
C       -4.07395716       0.99877732       3.71154077
C       -2.66462157       1.56051435       3.77101090
N       -2.01807323       1.55642763       2.47764779
N       -1.29166278       0.48962348       2.08978398
C       -0.87887566       0.87887566       0.87887566
N       -1.30354070       2.11903183       0.48941156
C       -2.01892077       2.52332216       1.51347357
H       -4.52912178       1.00907317       4.70655059
H       -4.07146060      -0.03398319       3.34748748
H       -4.70768230       1.58710709       3.04006655
H       -2.04618845       0.96589977       4.45331825
H       -2.67067472       2.58722949       4.15037698
C       -2.69225093       3.79530137       1.56138371
C       -3.25616494       4.86058396       1.60150846
Br      -4.16796619       6.58305581       1.66638678
C        1.38566542      -4.71921560       2.67939423
C        2.30476681      -3.90589827       1.78548174
N        1.86613094      -2.53460158       1.65141612
N        1.02752942      -2.18879129       0.65474953
C        0.87887566      -0.87887566       0.87887566
N        1.57082057      -0.38922481       1.95193870
C        2.18331557      -1.45185210       2.42054884
H        1.74188315      -5.75131450       2.75154789
H        0.36496064      -4.73682579       2.28317845
H        1.34335350      -4.30114599       3.69035645
H        2.34257049      -4.34222289       0.78061307
H        3.32694358      -3.90438224       2.17695536
C        3.03925947      -1.43131161       3.57836494
C        3.75611248      -1.41410895       4.54803593
Br       4.91520318      -1.38629371       6.11591190
