178
Properties=species:S:1:pos:R:3 pbc="F F F"
C        1.79172325       1.79172325      -1.79172325
C        1.59647656       1.80404452      -3.17233886
C        2.39998553       2.61490506      -3.97607034
C        3.38216564       3.41603625      -3.39346962
C        3.59371920       3.38389237      -2.01420344
C        2.78913311       2.57429028      -1.20918141
N        4.21582386       4.22230227      -4.23296784
S        5.61817714       3.43461711      -4.81186201
O        6.65495195       3.78678214      -3.86601605
O        5.29375953       2.06686010      -5.15389052
C        5.97710297       4.27455225      -6.33485954
C        5.07188550       5.23412418      -6.82111093
C        5.37211747       5.89738627      -7.99828687
C        6.53922744       5.60810215      -8.70039970
C        6.63957488       6.41693347      -9.95342358
C        5.39630722       7.31064643      -9.85885373
N        4.63912205       6.89576463      -8.66491721
C        3.43878413       7.43850535      -8.24062537
O        2.84651870       7.12096460      -7.21009171
C        2.84970764       8.49417057      -9.14479427
C        7.43609379       4.65366791      -8.24273559
C        7.15585166       3.98064006      -7.04533719
H        0.83014635       1.18597767      -3.63219896
H        2.25764898       2.61853823      -5.05348432
H        4.38043867       3.97691326      -1.55601992
H        2.95146587       2.55580788      -0.13473676
H        4.54132800       5.04828737      -3.72508450
H        4.14995606       5.45094396      -6.29483421
H        6.59248366       5.77307647     -10.83734330
H        7.55645215       7.01327046      -9.97990677
H        4.76414936       7.21681468     -10.74825428
H        5.67507912       8.36475948      -9.74625153
H        2.62250399       8.06681367     -10.12475389
H        3.53705680       9.33779114      -9.24458904
H        1.91668858       8.86461535      -8.70877601
H        8.33629175       4.43434090      -8.81098705
C        8.12224319       2.99672898      -6.63108317
C        8.93159610       2.17270345      -6.28414543
Br      10.24025130       0.84032387      -5.72317644
C       -1.79172325      -1.79172325      -1.79172325
C       -1.32182293      -2.21739035      -3.03364666
C       -2.12727195      -3.02786725      -3.83582173
C       -3.38894662      -3.41704654      -3.38567835
C       -3.86852918      -2.96969555      -2.15359028
C       -3.06267901      -2.16027844      -1.34964735
N       -4.21397640      -4.22654434      -4.23057323
S       -5.19730445      -3.34852165      -5.31883016
O       -6.46518489      -3.20621129      -4.63635396
O       -4.45104854      -2.22385243      -5.83960918
C       -5.44190236      -4.47401020      -6.67060219
C       -4.74859547      -5.69705758      -6.68146756
C       -4.96287931      -6.57539884      -7.72951246
C       -5.83399540      -6.24836482      -8.76536907
C       -5.88388145      -7.32593849      -9.80011199
C       -4.97703767      -8.40108736      -9.18768234
N       -4.40402700      -7.84751067      -7.94826622
C       -3.51187497      -8.49475633      -7.11128355
O       -3.08583930      -8.04219014      -6.04954557
C       -3.05388004      -9.85468521      -7.58010724
C       -6.51484372      -5.03962346      -8.77803010
C       -6.32094821      -4.14244529      -7.71843540
H       -0.33820271      -1.92175065      -3.38836962
H       -1.76837716      -3.35232567      -4.80896871
H       -4.86418731      -3.23797490      -1.81120964
H       -3.43572674      -1.81847272      -0.38781104
H       -4.84965009      -4.79709553      -3.66795424
H       -4.05137091      -5.95206161      -5.89230171
H       -5.48011013      -6.96971032     -10.75308298
H       -6.90101265      -7.70099654      -9.94762020
H       -4.17101088      -8.68595963      -9.87224781
H       -5.54748825      -9.30262836      -8.93597353
H       -2.51922052      -9.76564559      -8.52920545
H       -3.90677986     -10.53008630      -7.68257082
H       -2.36880851     -10.28076049      -6.84051094
H       -7.18216120      -4.79816829      -9.60129021
C       -7.05004764      -2.90314577      -7.79686193
C       -7.66066841      -1.86523242      -7.86254414
Br      -8.64799055      -0.18701432      -7.96874673
C       -1.79172325       1.79172325       1.79172325
C       -2.55749726       2.80288160       1.21248108
C       -3.36704650       3.60429094       2.01962349
C       -3.41517136       3.38078082       3.39571933
C       -2.62903701       2.38506833       3.97770968
C       -1.82018654       1.58168571       3.17073255
N       -4.22968206       4.22764016       4.21377175
S       -3.45130632       5.64489937       4.76845057
O       -2.93752766       5.29515216       6.07507033
O       -2.62119237       6.18133908       3.71197870
C       -4.78436476       6.79339887       5.00875113
C       -6.08366301       6.43214059       4.61131701
C       -7.11828666       7.32698512       4.82251883
C       -6.87679776       8.57062331       5.40030822
C       -8.12897116       9.38083626       5.50012451
C       -9.18744522       8.40137893       4.97698322
N       -8.48633051       7.18588654       4.52758684
C       -9.08242128       6.07097106       3.96452251
O       -8.49096787       5.04012523       3.64648191
C      -10.57167420       6.17614168       3.74085660
C       -5.59862861       8.94913540       5.78473327
C       -4.53974846       8.05107860       5.59100185
H       -2.52826243       2.97937087       0.14068968
H       -3.95671255       4.40029198       1.57266701
H       -2.63259864       2.22796401       5.05280919
H       -1.21384270       0.80275306       3.62541475
H       -4.53905365       3.72595885       5.04968736
H       -6.27926467       5.47623736       4.14023220
H       -8.06953522      10.26950182       4.86386639
H       -8.33894617       9.67908277       6.53160044
H       -9.75567803       8.82929822       4.14424206
H       -9.89433613       8.12418957       5.76756443
H      -10.79102526       6.98442667       3.03861962
H      -11.08913238       6.34124978       4.68905483
H      -10.94005101       5.23981146       3.31021747
H       -5.42888157       9.92871926       6.22401887
C       -3.23811850       8.50874856       6.00318827
C       -2.14800341       8.89204716       6.34839441
Br      -0.38537951       9.51180857       6.90656353
C        1.79172325      -1.79172325       1.79172325
C        2.65981335      -2.71033827       1.20270833
C        3.46896220      -3.51161931       2.01037941
C        3.41407078      -3.37960741       3.39799331
C        2.52658442      -2.47785419       3.98737640
C        1.71798657      -1.67457520       3.18004303
N        4.23055608      -4.22656696       4.21397093
S        3.51664254      -5.72494077       4.62307295
O        2.89812863      -5.49828781       5.91133371
O        2.79388015      -6.24004288       3.48058712
C        4.90671667      -6.79992302       4.87987506
C        6.20109674      -6.33048908       4.59553479
C        7.27863499      -7.16993951       4.81921611
C        7.08599408      -8.46283949       5.29889572
C        8.38147121      -9.19660114       5.43185958
C        9.40203270      -8.11843849       5.04533619
N        8.64990948      -6.92230264       4.62759177
C        9.20342737      -5.73599219       4.17849529
O        8.56468417      -4.72565228       3.88723856
C       10.70759594      -5.73068399       4.05039256
C        5.81465288      -8.94722232       5.57062208
C        4.71163293      -8.10730600       5.36288997
H        2.71094190      -2.81502732       0.12235375
H        4.13865541      -4.23622107       1.55479506
H        2.45100211      -2.39432519       5.06804454
H        1.03235710      -0.96855480       3.64109861
H        4.45124580      -3.76422358       5.09923048
H        6.36082608      -5.33425119       4.20065696
H        8.42323883     -10.04191331       4.73775130
H        8.54515082      -9.55033509       6.45414347
H       10.04991222      -8.45168596       4.22762014
H       10.03666714      -7.85122046       5.89820253
H       11.02567180      -6.47372953       3.31467023
H       11.17366832      -5.92661952       5.01914915
H       11.03810540      -4.74568545       3.70628910
H        5.68430068      -9.96322918       5.93408983
C        3.42054921      -8.67388413       5.65562200
C        2.33926659      -9.14839331       5.90078508
Br       0.59092405      -9.91563453       6.29719303
C       -0.00445707       0.01189536      -1.78238275
H       -0.66409135       0.67374010      -2.43557963
H        0.65740317      -0.63156657      -2.45157240
C       -0.90989263      -0.90692880      -0.91072765
C        0.90977584       0.90977584      -0.90977584
C       -0.00465871       1.77757030       0.00794375
H       -0.66225468       2.44313916      -0.64384735
H        0.64322798       2.43503045       0.67728295
C       -1.78241447       0.00034974      -0.00472694
H       -2.45427497      -0.65498947       0.64260836
H       -2.43311707       0.67328779      -0.65473579
C       -0.91132561       0.90220522       0.91563759
C       -0.01476271      -0.02253852       1.78660255
H       -0.67934791      -0.69751639       2.42135241
H        0.63392994       0.61504881       2.47327442
C        0.01484550      -1.77751727      -0.01636693
H        0.67870853      -2.42144646      -0.68295456
H       -0.62264859      -2.45592969       0.64226336
C        1.78714474       0.01002794       0.00389507
H        2.44202412       0.67113390       0.66197326
H        2.45385902      -0.65136977      -0.64189061
C        0.91606151      -0.90478549       0.90901405
