182
Properties=species:S:1:pos:R:3 pbc="F F F"
C        1.79165071       1.79165071      -1.79165071
C        2.39123542       2.93177116      -1.24887372
C        3.20135764       3.74326058      -2.04896377
C        3.41996367       3.39701729      -3.38146999
N        4.20131537       4.24633748      -4.22288989
S        3.38438292       5.52189244      -4.98540617
O        4.18595830       5.93264514      -6.11721768
O        2.00002895       5.13865664      -5.16506564
C        3.44705277       6.82826889      -3.78244058
C        2.21148707       7.31578774      -3.30402450
C        2.19974019       8.32943473      -2.36430951
C        3.40929967       8.86513703      -1.91840539
C        3.19334564       9.91011529      -0.86775082
C        1.67170362      10.12651597      -0.95151250
H        1.23238659      10.12635903       0.05390739
C        1.34237970      11.46114828      -1.62848655
N        1.12815459       8.97904126      -1.72011550
C       -0.22873099       8.72219834      -1.69810923
O       -1.00739091       9.43347450      -1.05440110
C       -0.77895817       7.54137673      -2.44695800
C        4.63523130       8.40044002      -2.37905717
C        4.65876649       7.37022454      -3.32578913
Br       6.38021269       6.79023141      -3.87755519
C        2.80435000       2.25882606      -3.91261626
F        3.00933040       1.93019062      -5.19694960
C        1.99204895       1.44991878      -3.12666042
H        2.23411144       3.19416574      -0.20489936
H        3.66961945       4.62365976      -1.61837625
H        4.77713451       3.76715849      -4.91979021
H        1.29810578       6.89621573      -3.70289438
H        3.76929217      10.82001800      -1.06109343
H        3.47071198       9.50266416       0.11065869
H        1.74037603      11.50119712      -2.64842400
H        1.76884506      12.29547888      -1.06173412
H        0.26160422      11.62078493      -1.69274939
H       -0.27281234       6.62168164      -2.14500797
H       -0.70846076       7.71289690      -3.52342097
H       -1.83917657       7.42323045      -2.19945642
H        5.55676042       8.83361366      -1.99761244
H        1.52910109       0.57210955      -3.56534843
C       -1.79165071      -1.79165071      -1.79165071
C       -2.23920798      -1.30817025      -3.02450206
C       -3.04529002      -2.10983613      -3.83845584
C       -3.38189682      -3.39631753      -3.42023661
N       -4.24839193      -4.20452823      -4.21762258
S       -5.91460290      -3.99852331      -3.97855532
O       -6.57238705      -5.18641891      -4.47701516
O       -6.13198418      -3.55344457      -2.61832247
C       -6.32495660      -2.65994767      -5.07285796
C       -6.85601966      -1.49247860      -4.48280105
C       -7.19004194      -0.41790038      -5.28554211
C       -7.01299461      -0.51282610      -6.66702137
C       -7.37906394       0.76483990      -7.35698771
C       -8.07015919       1.54413065      -6.22370355
H       -7.69260504       2.57364043      -6.18587362
C       -9.58765309       1.58748641      -6.43184783
N       -7.71480033       0.84892904      -4.96144006
C       -7.92155621       1.48081546      -3.75083583
O       -8.40447728       2.61658858      -3.69259599
C       -7.53148177       0.79443241      -2.47232720
C       -6.49411345      -1.65402182      -7.26659323
C       -6.14674134      -2.74542185      -6.46261697
Br      -5.42752303      -4.24914070      -7.37133555
C       -2.93493494      -3.86168312      -2.17917425
F       -3.26523345      -5.09713760      -1.77409958
C       -2.13883367      -3.06940875      -1.36038573
H       -1.96396769      -0.31026579      -3.35894306
H       -3.38338671      -1.73001800      -4.79825075
H       -4.04178268      -5.20660564      -4.21569490
H       -7.00948265      -1.47523829      -3.41249496
H       -8.02648515       0.59937516      -8.22329361
H       -6.46561124       1.27878429      -7.67589051
H      -10.01746537       0.57995839      -6.45249017
H       -9.83223625       2.08329780      -7.37711961
H      -10.08570718       2.13902767      -5.62845903
H       -6.48283194       0.48995248      -2.50099781
H       -8.19768866      -0.04968101      -2.28048744
H       -7.64122592       1.49826427      -1.64054864
H       -6.35791153      -1.68513277      -8.34494223
H       -1.80529686      -3.45762149      -0.40364073
C       -1.79165071       1.79165071       1.79165071
C       -2.38280303       1.25161512       2.93746214
C       -3.18992907       2.05267926       3.75097367
C       -3.38409216       3.39313199       3.42122680
N       -4.24922690       4.20731362       4.21400221
S       -5.89927478       4.16780287       3.82460388
O       -6.50048459       5.36475417       4.37058235
O       -6.03187672       3.85429276       2.41758175
C       -6.51013059       2.78661941       4.76101223
C       -7.07968345       1.72135071       4.03026515
C       -7.56800374       0.61906151       4.70641919
C       -7.50546877       0.58672133       6.10065198
C       -8.03207271      -0.70534236       6.64448140
C       -8.68176868      -1.32749299       5.39545640
H       -8.38637427      -2.37970280       5.29816676
C      -10.21020808      -1.25448663       5.47629307
N       -8.16256064      -0.56680336       4.23155407
C       -8.31272955      -1.07876021       2.95760724
O       -8.87847126      -2.15953970       2.76155313
C       -7.75833960      -0.32855810       1.77959507
C       -6.95095703       1.62620372       6.83756773
C       -6.44792063       2.74412661       6.16273293
Br      -5.69239027       4.10116953       7.25443950
C       -2.79426929       3.91589354       2.26562948
F       -2.98742269       5.20407190       1.94497603
C       -1.99587492       3.12541658       1.44733665
H       -2.21903254       0.20980158       3.20434242
H       -3.64016519       1.62795197       4.64353829
H       -3.96332533       5.18436345       4.31639444
H       -7.13978406       1.80373699       2.95369483
H       -8.73740764      -0.55406454       7.46706049
H       -7.19433304      -1.32122560       6.98961001
H      -10.55775395      -0.21814749       5.55039069
H      -10.57565086      -1.80140033       6.35180753
H      -10.67878401      -1.69392530       4.59027983
H       -6.69514472      -0.12030801       1.91904055
H       -8.33515249       0.58329929       1.60940533
H       -7.85112085      -0.95090535       0.88329480
H       -6.90758348       1.55845344       7.92194961
H       -1.54975815       3.55863273       0.55816820
C        1.79165071      -1.79165071       1.79165071
C        2.04037413      -3.11503921       1.41646695
C        2.84802404      -3.92827908       2.21727888
C        3.41555669      -3.40490990       3.37798436
N        4.19799088      -4.24057223       4.23197963
S        3.35451509      -5.14426757       5.39289886
O        4.29977910      -5.51182612       6.42421589
O        2.13682333      -4.43748193       5.72944597
C        2.91228169      -6.62678785       4.51869270
C        1.53427101      -6.90600997       4.39101834
C        1.13187752      -8.04407112       3.71753579
C        2.09552116      -8.90614732       3.19117360
C        1.46717865     -10.04890987       2.45512322
C       -0.01138788      -9.90356109       2.85755888
H       -0.65543789      -9.98707758       1.97319854
C       -0.41722126     -10.98747463       3.86176116
N       -0.15498071      -8.54487190       3.43742015
C       -1.41386874      -8.00163505       3.60381027
O       -2.43102443      -8.62644125       3.28506787
C       -1.56223623      -6.61306739       4.15854541
C        3.45624626      -8.64985789       3.30862434
C        3.87447836      -7.49727086       3.98303095
Br       5.75103626      -7.22402680       4.07293622
C        3.14854471      -2.08190902       3.74533858
F        3.68915891      -1.58106905       4.86624267
C        2.34147784      -1.26811359       2.95903673
H        1.61088667      -3.51971523       0.50257464
H        3.04258982      -4.95342945       1.91563619
H        4.99075370      -3.78358974       4.68973978
H        0.82309059      -6.22941123       4.84471407
H        1.89806243     -11.01381408       2.73852708
H        1.58928885      -9.89627870       1.37714989
H        0.18326580     -10.93040178       4.77632956
H       -0.28462123     -11.98373688       3.42694241
H       -1.46741237     -10.88906492       4.15348599
H       -0.97850362      -5.89844779       3.57393310
H       -1.28673057      -6.59912982       5.21545786
H       -2.61185616      -6.30919452       4.08617194
H        4.17665041      -9.33815926       2.87317686
H        2.15333507      -0.24516476       3.26805925
C       -0.00445707       0.01189536      -1.78238275
H       -0.66409135       0.67374010      -2.43557963
H        0.65740317      -0.63156657      -2.45157240
C       -0.90989263      -0.90692880      -0.91072765
C        0.90977584       0.90977584      -0.90977584
C       -0.00465871       1.77757030       0.00794375
H       -0.66225468       2.44313916      -0.64384735
H        0.64322798       2.43503045       0.67728295
C       -1.78241447       0.00034974      -0.00472694
H       -2.45427497      -0.65498947       0.64260836
H       -2.43311707       0.67328779      -0.65473579
C       -0.91132561       0.90220522       0.91563759
C       -0.01476271      -0.02253852       1.78660255
H       -0.67934791      -0.69751639       2.42135241
H        0.63392994       0.61504881       2.47327442
C        0.01484550      -1.77751727      -0.01636693
H        0.67870853      -2.42144646      -0.68295456
H       -0.62264859      -2.45592969       0.64226336
C        1.78714474       0.01002794       0.00389507
H        2.44202412       0.67113390       0.66197326
H        2.45385902      -0.65136977      -0.64189061
C        0.91606151      -0.90478549       0.90901405
