125
Properties=species:S:1:pos:R:3 pbc="F F F"
C        0.00000000       0.00000000       0.00000000
C        0.88102584       0.88102584      -0.88102584
C        1.90974221       0.31184321      -1.62144081
C        2.71323267       1.12648136      -2.42422441
C        2.53069275       2.51866466      -2.47490420
C        1.45704656       3.05832407      -1.75744724
C        0.64433525       2.24933361      -0.95286130
N        3.34379242       3.25648853      -3.34664256
C        3.57203679       4.68670816      -3.10618379
H        3.56994719       4.93433153      -2.03889195
S        2.40107661       5.70825262      -3.98522053
C        3.60535857       6.30347539      -5.09986786
O        3.24234188       6.96712718      -6.05797281
N        4.87843981       5.90513233      -4.75362594
C        6.04156681       6.30212905      -5.51015410
C        6.02806532       7.43442642      -6.34538457
C        7.15130477       7.81438163      -7.09375716
C        8.31916926       7.06830627      -7.01768313
Br       9.83348929       7.57364467      -8.02521482
C        8.37058806       5.94825198      -6.20037022
C        7.24326363       5.57167685      -5.45693035
C        4.94775739       5.06663082      -3.65448746
O        5.96304557       4.60543974      -3.12935967
H        2.09213942      -0.75864248      -1.59197355
H        3.49746568       0.65646540      -3.01415598
H        1.21447623       4.11490948      -1.80842189
H       -0.17547543       2.69965590      -0.39937819
H        4.23301432       2.76784463      -3.47196734
H        5.15539479       8.07766002      -6.43096375
H        7.09603652       8.69616169      -7.72745321
H        9.27576344       5.34988692      -6.13354644
H        7.34122667       4.66521602      -4.86640966
C       -0.88102584      -0.88102584      -0.88102584
C       -1.00922698      -0.59846098      -2.23533826
C       -1.81990103      -1.40940510      -3.03463232
C       -2.54169050      -2.48739757      -2.49517353
C       -2.35565655      -2.77826274      -1.13889858
C       -1.54257091      -1.97325155      -0.33070770
N       -3.28842407      -3.28374445      -3.37475499
C       -4.42134592      -4.07099380      -2.87258902
H       -4.92807313      -3.58171477      -2.03338277
S       -3.93750349      -5.73059213      -2.42645415
C       -4.79182756      -6.44768943      -3.76918484
O       -4.63081767      -7.63527287      -4.00135132
N       -5.55983863      -5.52769086      -4.44966859
C       -6.38017736      -5.89481363      -5.57885897
C       -6.79955939      -7.22179716      -5.78651976
C       -7.58373209      -7.58499197      -6.89071951
C       -7.97089442      -6.62204503      -7.81221920
Br      -9.02425396      -7.10592839      -9.30216644
C       -7.58005552      -5.30233006      -7.63682468
C       -6.79346174      -4.94595813      -6.53245096
C       -5.45062379      -4.22574064      -3.99251125
O       -6.05620605      -3.23518941      -4.40644952
H       -0.48084337       0.23844897      -2.68307608
H       -1.88667890      -1.18431198      -4.09709618
H       -2.82563269      -3.63868584      -0.67348907
H       -1.42623801      -2.21891492       0.72159426
H       -3.57197111      -2.72102626      -4.17982893
H       -6.55417944      -8.01997460      -5.08986451
H       -7.88418505      -8.62278515      -7.01268122
H       -7.87020601      -4.53684174      -8.35214905
H       -6.49354372      -3.90344697      -6.47586166
C       -0.88102584       0.88102584       0.88102584
C       -1.68020756       1.85969014       0.30312852
C       -2.48258495       2.66362908       1.11772441
C       -2.47542092       2.53227452       2.51656616
C       -1.69854030       1.50678476       3.06749281
C       -0.89380718       0.69391773       2.25880526
N       -3.34982759       3.34037827       3.25671766
C       -3.06611391       3.63131493       4.66749990
H       -1.99117798       3.67760193       4.87439076
S       -3.86222141       2.46860079       5.76372758
C       -4.99924033       3.65306491       6.35639658
O       -5.91801168       3.28071645       7.06871373
N       -4.71629673       4.92192507       5.89897628
C       -5.50137344       6.07085687       6.28161965
C       -6.29357394       6.06979545       7.44450693
C       -7.06961657       7.17854681       7.81128020
C       -7.06517870       8.31928366       7.02069629
Br      -8.11026859       9.81386065       7.50821954
C       -6.29186132       8.35801951       5.86932943
C       -5.52046623       7.24513681       5.50626779
C       -3.65193887       4.99950403       5.01743277
O       -3.18287917       6.01508002       4.49988579
H       -1.69679855       2.00232424      -0.77365230
H       -3.11860030       3.40740565       0.64208111
H       -1.70165321       1.30274838       4.13340601
H       -0.29356019      -0.08746520       2.71746367
H       -3.52654146       4.20526269       2.74102214
H       -6.32245231       5.21959682       8.12196943
H       -7.66812930       7.13363992       8.71788221
H       -6.28130579       9.24169398       5.23619702
H       -4.96758923       7.33016646       4.57509667
C        0.88102584      -0.88102584       0.88102584
C        1.07825732      -2.21569693       0.54907197
C        1.88510836      -3.01607876       1.36275133
C        2.47629788      -2.51377981       2.53418391
C        2.30060439      -1.15456267       2.81765081
C        1.49652113      -0.34381033       2.00619871
N        3.31506278      -3.36717543       3.26468531
C        3.55329807      -3.11957621       4.69205445
H        2.68441614      -2.67177447       5.18698006
S        5.00848285      -2.12172650       4.96434042
C        5.91401792      -3.44988603       5.64479788
O        7.10498060      -3.29737336       5.86508791
N        5.13433881      -4.57073681       5.83212247
C        5.65787238      -5.78437769       6.41159990
C        6.81695678      -5.78156965       7.20934988
C        7.33727786      -6.96084357       7.76132214
C        6.70246984      -8.17312629       7.52956252
Br       7.40021712      -9.76425651       8.26787514
C        5.55414672      -8.21326010       6.75180343
C        5.04051167      -7.03122095       6.20013821
C        3.82932636      -4.45382188       5.38572743
O        2.93255843      -5.29522652       5.47006004
H        0.62143933      -2.64307207      -0.33904092
H        2.04540381      -4.05193391       1.07074935
H        2.78716142      -0.68443537       3.66621081
H        1.37100206       0.70587788       2.25843449
H        3.02469009      -4.33554777       3.11258844
H        7.34783171      -4.86404523       7.45214162
H        8.23635108      -6.91247880       8.37082155
H        5.04786401      -9.15519502       6.55613776
H        4.16041831      -7.13970997       5.57272407
