133
Properties=species:S:1:pos:R:3 pbc="F F F"
C        0.00000000       0.00000000       0.00000000
C        0.88102584       0.88102584      -0.88102584
C        1.90974221       0.31184321      -1.62144081
C        2.71323267       1.12648136      -2.42422441
C        2.53069275       2.51866466      -2.47490420
C        1.45704656       3.05832407      -1.75744724
C        0.64433525       2.24933361      -0.95286130
N        3.34379242       3.25648853      -3.34664256
C        3.57203679       4.68670816      -3.10618379
H        3.56994719       4.93433153      -2.03889195
S        2.40107661       5.70825262      -3.98522053
C        3.60535857       6.30347539      -5.09986786
O        3.24234188       6.96712718      -6.05797281
N        4.87843981       5.90513233      -4.75362594
C        6.04156681       6.30212905      -5.51015410
C        6.02806532       7.43442642      -6.34538457
C        7.15130477       7.81438163      -7.09375716
C        8.31916926       7.06830627      -7.01768313
C        8.37058806       5.94825198      -6.20037022
C        7.24326363       5.57167685      -5.45693035
C        4.94775739       5.06663082      -3.65448746
O        5.96304557       4.60543974      -3.12935967
H        2.09213942      -0.75864248      -1.59197355
H        3.49746568       0.65646540      -3.01415598
H        1.21447623       4.11490948      -1.80842189
H       -0.17547543       2.69965590      -0.39937819
H        4.23301432       2.76784463      -3.47196734
H        5.15539479       8.07766002      -6.43096375
H        7.09603652       8.69616169      -7.72745321
H        9.27576344       5.34988692      -6.13354644
H        7.34122667       4.66521602      -4.86640966
C        9.47430363       7.45378209      -7.78623565
C       10.44172866       7.77661809      -8.42989839
Br      12.00597312       8.29861659      -9.47064659
C       -0.88102584      -0.88102584      -0.88102584
C       -0.54489849      -2.21372931      -1.08439842
C       -1.35634705      -3.01305942      -1.89453198
C       -2.48957397      -2.49274813      -2.54193950
C       -2.83138571      -1.16103809      -2.28039407
C       -2.02614064      -0.35321210      -1.46717743
N       -3.27992303      -3.37435937      -3.29264111
C       -4.14044612      -2.85951649      -4.36496613
H       -3.71295218      -1.97683341      -4.85338508
S       -5.79394446      -2.51284930      -3.78775601
C       -6.48965127      -3.84819824      -4.67085231
O       -7.65700171      -4.14218403      -4.46825613
N       -5.57702297      -4.45046832      -5.50970680
C       -5.93137590      -5.55797262      -6.36450144
C       -7.26588054      -5.80822144      -6.73377433
C       -7.61574300      -6.89220923      -7.55149133
C       -6.63187217      -7.74990371      -8.02338277
C       -5.30451480      -7.53092545      -7.68377000
C       -4.96135641      -6.44718836      -6.86332606
C       -4.29297654      -3.93863660      -5.43726253
O       -3.31422620      -4.27884312      -6.10477566
H        0.33469138      -2.64512269      -0.61503918
H       -1.08767141      -4.05991193      -2.02050372
H       -3.73251182      -0.71569346      -2.68960232
H       -2.31259166       0.68034509      -1.29131210
H       -2.69580889      -4.13905405      -3.63796336
H       -8.08192895      -5.16096300      -6.42112661
H       -8.65993429      -7.04878308      -7.81093406
H       -4.52233876      -8.19634583      -8.04051220
H       -3.90958073      -6.35560906      -6.60766256
C       -6.98710017      -8.86558415      -8.86163705
C       -7.28460362      -9.79996651      -9.56367501
Br      -7.76564153     -11.31078377     -10.69881101
C       -0.88102584       0.88102584       0.88102584
C       -2.25956680       0.70771252       0.87574690
C       -3.05925410       1.52042984       1.68425451
C       -2.50644717       2.53823272       2.47958171
C       -1.11224210       2.65806313       2.50251264
C       -0.30245290       1.84584476       1.69823250
N       -3.37223084       3.27236253       3.30233015
C       -2.99365348       4.61689860       3.75437666
H       -2.38032355       5.14614282       3.01670430
S       -2.17204975       4.58342983       5.33907019
C       -3.51982558       5.32327673       6.16559952
O       -3.50146101       5.38116365       7.38481720
N       -4.49823771       5.74669911       5.29226127
C       -5.69455843       6.41652655       5.74276499
C       -5.75204439       7.06634054       6.98949138
C       -6.91731680       7.70492468       7.43720208
C       -8.05372056       7.71102483       6.64041326
C       -8.03206902       7.08456885       5.40257239
C       -6.86492270       6.44514222       4.96180592
C       -4.26266531       5.44392144       3.96228892
O       -4.96252941       5.74266913       2.99264644
H       -2.72336706      -0.05676860       0.25887203
H       -4.13411712       1.35124707       1.68272287
H       -0.61489947       3.37449317       3.14841496
H        0.77679524       1.97000225       1.73035165
H       -4.30478865       3.28449558       2.88354207
H       -4.89076121       7.12217643       7.65108092
H       -6.91752674       8.19371385       8.40841084
H       -8.91513944       7.07548235       4.76857500
H       -6.92849277       5.94445464       3.99990495
C       -9.25317472       8.36381578       7.09733086
C      -10.25771758       8.91052820       7.47999935
Br     -11.88197842       9.79451595       8.09874194
C        0.88102584      -0.88102584       0.88102584
C        0.31424689      -1.60860315       1.92017618
C        1.12888997      -2.41147649       2.72357199
C        2.51911070      -2.47481101       2.53033990
C        3.05582360      -1.77031130       1.44668296
C        2.24676805      -0.96575478       0.63400733
N        3.25647139      -3.34593996       3.34451217
C        4.69035476      -3.11518199       3.55939200
H        4.94646395      -2.04996767       3.54673905
S        5.69539647      -4.01172726       2.38742605
C        6.29137376      -5.12148005       3.59584801
O        6.94441515      -6.08776039       3.23526632
N        5.90606260      -4.76189439       4.86924110
C        6.30635376      -5.51228463       6.03521157
C        7.43180343      -6.35667932       6.01939356
C        7.81479836      -7.09909576       7.14554945
C        7.07877435      -7.00770267       8.31868163
C        5.96572903      -6.18102027       8.37246096
C        5.58604174      -5.44359603       7.24223307
C        5.07694536      -3.65552693       4.93640338
O        4.62814386      -3.11861880       5.95108233
H       -0.75446735      -1.56906921       2.11086863
H        0.66050537      -2.99132925       3.51625244
H        4.10998266      -1.83171969       1.19610525
H        2.69488310      -0.42247364      -0.19379807
H        2.77401299      -3.46022794       4.23858537
H        8.06729146      -6.45439342       5.14233368
H        8.69101931      -7.74028675       7.08834537
H        5.37521850      -6.10216191       9.28181639
H        4.68514051      -4.84503828       7.34267356
C        7.46738508      -7.77008760       9.47684868
C        7.79284657      -8.40858498      10.44681359
Br       8.31909027      -9.44098123      12.01516480
