145
Properties=species:S:1:pos:R:3 pbc="F F F"
C        0.00000000       0.00000000       0.00000000
C        0.88205095       0.88205095      -0.88205095
C        2.22702738       0.55884017      -1.05636077
C        3.03296620       1.36344652      -1.86203457
C        2.49140522       2.48638787      -2.49084142
C        1.13983080       2.81015188      -2.31540650
C        0.33353103       2.00234461      -1.50541057
C        0.57042483       3.98727417      -2.97904147
C        0.06838817       3.89257775      -4.22451625
C       -0.51193883       5.11650050      -4.92509084
H       -1.56617180       4.90483986      -5.14416079
N       -0.54322425       6.28216002      -4.03296454
N       -1.13959373       7.45586731      -4.32759927
C       -0.89927874       8.14243052      -3.20440319
N       -0.21372784       7.46899211      -2.22561192
C       -0.01865456       6.29367798      -2.76544132
N        0.56126654       5.17702086      -2.28330159
C        0.25418292       5.43441420      -6.19491328
C        1.61895556       5.77876587      -6.17586055
C        2.29115200       6.05659537      -7.36797715
C        1.62382142       5.99980716      -8.59039346
C        0.27196949       5.65987043      -8.61983832
C       -0.39782656       5.37998210      -7.43071000
F       -1.69214120       5.03605186      -7.48972362
H        2.65529114      -0.31406645      -0.57025630
H        4.08293174       1.11633273      -1.99996901
H        3.12913436       3.10831377      -3.11569935
H       -0.71598376       2.24915880      -1.36406292
H        0.06187711       2.95065392      -4.76429836
H       -1.23730701       9.16460363      -3.08921582
H        0.91260918       5.16685027      -1.33081020
H        2.15542730       5.83367128      -5.23045430
H        2.14417508       6.21778750      -9.51926573
H       -0.26588340       5.61030595      -9.56220354
C        3.68912834       6.40018569      -7.33322295
C        4.85993352       6.68794259      -7.30411631
Br       6.75302647       7.15322115      -7.25705334
C       -0.88205095      -0.88205095      -0.88205095
C       -0.99594851      -0.60299249      -2.24328732
C       -1.80073992      -1.40824374      -3.04946363
C       -2.48697840      -2.48921116      -2.49244495
C       -2.37164898      -2.76904704      -1.12469316
C       -1.56488276      -1.95887933      -0.31752411
C       -3.08932401      -3.90667414      -0.54074232
C       -2.52996713      -5.13103965      -0.52447539
C       -3.27751725      -6.32063032       0.06849506
H       -2.67806956      -6.70718363       0.90242433
N       -4.54603585      -5.90718164       0.68131719
N       -5.34192935      -6.71454377       1.41260027
C       -6.32214268      -5.86382936       1.73841708
N       -6.17881891      -4.57978920       1.27773192
C       -5.04266441      -4.62936857       0.63156824
N       -4.33908085      -3.67455376      -0.00795438
C       -3.51250575      -7.39485281      -0.97615183
C       -4.28774747      -7.15869407      -2.12714044
C       -4.47382455      -8.17178795      -3.07011201
C       -3.89922070      -9.42835264      -2.88644869
C       -3.12978018      -9.67228162      -1.74961644
C       -2.94190243      -8.66062890      -0.81033420
F       -2.18086617      -8.91603245       0.26326434
H       -0.46429066       0.23662141      -2.68381175
H       -1.89393365      -1.19382872      -4.11147111
H       -3.11348132      -3.10993482      -3.12973134
H       -1.47240330      -2.16997819       0.74514353
H       -1.53862467      -5.30813882      -0.93006589
H       -7.16708303      -6.18429275       2.33486333
H       -4.68079139      -2.71851518      -0.01096308
H       -4.74895945      -6.18557198      -2.28502145
H       -4.04443231     -10.21907170      -3.61772431
H       -2.67370939     -10.64476466      -1.58815205
C       -5.26334369      -7.91295778      -4.24623551
C       -5.92456596      -7.69618751      -5.23123894
Br      -6.99370645      -7.34568833      -6.82390618
C       -0.88205095       0.88205095       0.88205095
C       -0.30654921       1.91509029       1.62058882
C       -1.11135204       2.72127204       2.42582321
C       -2.48738557       2.49263879       2.48861017
C       -3.06479199       1.45467243       1.74592476
C       -2.25518966       0.64615321       0.93994333
C       -4.51044738       1.21728560       1.80900748
C       -5.34554874       1.86486768       0.97506575
C       -6.85110233       1.63275412       1.04579607
H       -7.17197468       1.23695453       0.07389965
N       -7.18753936       0.57620307       2.00815787
N       -8.42036282       0.05292589       2.17058414
C       -8.17850850      -0.85467127       3.12371773
N       -6.87742523      -0.94515178       3.54860274
C       -6.27085540      -0.04687280       2.81648214
N       -4.97395733       0.31019515       2.73743651
C       -7.58724488       2.91598156       1.38028395
C       -7.38065107       3.59955528       2.59337563
C       -8.07204358       4.78308848       2.86059245
C       -8.97556877       5.30310668       1.93534657
C       -9.18733468       4.63338984       0.73095371
C       -8.49541687       3.45415312       0.46329554
F       -8.70291876       2.84163910      -0.71092358
H        0.76388996       2.09912125       1.57624971
H       -0.66700735       3.52737774       3.00484840
H       -3.10586348       3.12610478       3.12117923
H       -2.69713894      -0.16209305       0.36219207
H       -4.97655138       2.56673322       0.23354479
H       -8.97178328      -1.47571356       3.52044272
H       -4.28535259      -0.17729043       3.30220748
H       -6.68325334       3.20586587       3.33043367
H       -9.51650902       6.22277379       2.14194549
H       -9.88730207       5.02227165      -0.00294763
C       -7.84466070       5.47510326       4.10277303
C       -7.65422753       6.05466563       5.14309926
Br      -7.34631321       6.99176897       6.82521878
C        0.88205095      -0.88205095       0.88205095
C        1.24218341      -2.15580133       0.44424357
C        2.04799761      -2.96161426       1.24883543
C        2.49136488      -2.49088646       2.48638318
C        2.12930528      -1.21079662       2.92528728
C        1.31950889      -0.40470418       2.11707314
C        2.59830239      -0.71519976       4.22323832
C        3.78088759      -0.08002983       4.32456475
C        4.28030650       0.42478088       5.67412690
H        4.39734797       1.51327504       5.59875593
N        3.27523109       0.22980685       6.72647606
N        3.37690153       0.71443607       7.98140739
C        2.22408867       0.28239972       8.50586602
N        1.40519376      -0.41831236       7.65737007
C        2.08201813      -0.42033404       6.53811257
N        1.78732339      -0.91458058       5.31968502
C        5.59025074      -0.23793981       6.05531986
C        5.69286622      -1.62790903       6.25280673
C        6.91936555      -2.20122397       6.59513499
C        8.05626155      -1.40947361       6.74828687
C        7.96494445      -0.03170764       6.55502616
C        6.74188557       0.53978012       6.21076008
F        6.68680898       1.86420247       6.01102777
H        0.90103395      -2.52863912      -0.51819208
H        2.33043775      -3.95638347       0.91241226
H        3.11800451      -3.12812428       3.10701870
H        1.03377912       0.58930263       2.45276148
H        4.41045478       0.09028046       3.45665507
H        1.96615375       0.48700011       9.53735881
H        0.88768557      -1.35863392       5.16395015
H        4.81481044      -2.26162493       6.14311750
H        9.01137773      -1.85299434       7.01685624
H        8.83928683       0.60244567       6.66978493
C        7.01036342      -3.62552846       6.78664511
C        7.08657413      -4.81838346       6.94703483
Br       7.20980041      -6.74712912       7.20637144
