186
Properties=species:S:1:pos:R:3 pbc="F F F"
C        1.78145680       1.78145680      -1.78145680
C        1.64001159       3.14083713      -1.88530581
C        2.61874864       3.70067360      -2.76733362
C        3.47244506       2.74041975      -3.28481028
S        3.04648665       1.16970154      -2.71720464
C        4.64454389       2.86390816      -4.14172781
O        5.47620469       1.96576798      -4.24561956
N        4.76468150       4.06657816      -4.82700210
C        5.84072543       4.39342665      -5.70415497
C        5.50210991       5.16046500      -6.83361089
C        6.44705334       5.44519688      -7.83618733
C        6.10539253       6.15199403      -9.00391245
C        7.04261852       6.34805338     -10.02010797
C        8.33287575       5.84699655      -9.88597491
C        8.69752116       5.17559764      -8.71821199
C        7.76754965       4.98028380      -7.68545405
C        8.13227066       4.32481747      -6.49949230
C        7.19558559       4.05149861      -5.49509508
N        7.61172950       3.48068096      -4.26995657
C        8.86486173       3.53610863      -3.68877567
O        9.82141068       4.13291467      -4.17816369
C        8.98044518       2.87722790      -2.38792866
C       10.11766356       2.82205334      -1.59635218
C        9.91366382       2.09918349      -0.38381594
C        8.62449170       1.64168773      -0.29719308
S        7.67009327       2.07109512      -1.62622309
H        0.89339004       3.71436144      -1.34969484
H        2.70586425       4.76260879      -2.96210796
H        3.90412633       4.57850719      -4.96434549
H        4.47723950       5.49569661      -6.97561024
H        5.09983285       6.54348282      -9.13670751
H        6.76196105       6.88398047     -10.92368133
H        9.05830482       5.97751993     -10.68398053
H        9.71214062       4.79390150      -8.62468502
H        9.16150043       3.99717925      -6.38870737
H        6.89326092       3.00811475      -3.73269632
H       11.05551642       3.28255217      -1.88792848
H       10.67578734       1.93254148       0.36726114
C        8.12543602       0.87421247       0.81434871
C        7.70747688       0.23145194       1.74526495
Br       7.03167230      -0.80783748       3.25047779
C       -1.78145680      -1.78145680      -1.78145680
C       -1.69613936      -3.14888248      -1.82113269
C       -2.66040938      -3.70522115      -2.72112533
C       -3.44795515      -2.73348111      -3.31623883
S       -2.97725565      -1.15864143      -2.79749576
C       -4.58694235      -2.84497293      -4.21826457
O       -5.37280476      -1.91782816      -4.39695930
N       -4.73108486      -4.07065758      -4.85651932
C       -5.78235546      -4.39010074      -5.76585085
C       -5.43044004      -5.22014264      -6.84560312
C       -6.34366579      -5.50867465      -7.87609710
C       -5.98441543      -6.28041493      -8.99646865
C       -6.88542878      -6.48137304     -10.04397806
C       -8.15673219      -5.92054221      -9.98857281
C       -8.54049483      -5.18315606      -8.86767991
C       -7.64745843      -4.98189978      -7.80392930
C       -8.03277546      -4.25960608      -6.66419889
C       -7.12837580      -3.98203426      -5.63176922
N       -7.57043482      -3.34030977      -4.45162244
C       -8.84833288      -3.31666978      -3.92474338
O       -9.80876342      -3.89344211      -4.43028351
C       -8.98970768      -2.59645055      -2.65944352
C      -10.15593816      -2.45800936      -1.92212156
C       -9.97174654      -1.69140344      -0.73351328
C       -8.66839897      -1.28565566      -0.60931788
S       -7.67842059      -1.81369178      -1.87529912
H       -0.99909032      -3.72927285      -1.22908316
H       -2.78617443      -4.77009135      -2.87431523
H       -3.88901899      -4.62424143      -4.93371859
H       -4.41633707      -5.60454393      -6.92766535
H       -4.99247171      -6.71973949      -9.06781197
H       -6.59070437      -7.06826440     -10.91065408
H       -8.85270463      -6.05540511     -10.81169554
H       -9.54024847      -4.75496208      -8.83551660
H       -9.05024117      -3.88398273      -6.61316316
H       -6.85517620      -2.87531394      -3.90358186
H      -11.10006173      -2.89075498      -2.23518035
H      -10.75692823      -1.45942349      -0.02471598
C       -8.18344289      -0.49153136       0.48967447
C       -7.77729217       0.17354775       1.41008056
Br      -7.12058082       1.24892441       2.89829937
C       -1.78145680       1.78145680       1.78145680
C       -1.49641840       2.08161860       3.08811753
C       -2.48952478       2.94400145       3.65322963
C       -3.48059172       3.27367261       2.74341076
S       -3.20553208       2.49976639       1.22809437
C       -4.62212608       4.17237622       2.85567756
O       -5.21417870       4.60384723       1.86956629
N       -4.99205846       4.51614468       4.15005861
C       -6.07020018       5.39042957       4.47767730
C       -6.79762585       5.06245200       5.63610796
C       -7.95641681       5.77266773       5.99935301
C       -8.73238517       5.41243106       7.11648278
C       -9.92266957       6.08265891       7.40545140
C      -10.35425428       7.12245618       6.58913675
C       -9.57727984       7.51545379       5.49859716
C       -8.37416164       6.85612714       5.20299872
C       -7.57675227       7.25896682       4.12086135
C       -6.41627397       6.56052753       3.76537778
N       -5.57969700       7.04804084       2.73462920
C       -5.45591727       8.34929904       2.28452973
O       -6.07517013       9.29981992       2.75749900
C       -4.47150742       8.55230301       1.22179132
C       -4.14451322       9.76251827       0.62903758
C       -3.14932729       9.63164875      -0.38431278
C       -2.75147726       8.32645883      -0.51456358
S       -3.53730705       7.27634352       0.55376091
H       -0.61916358       1.72460234       3.61368041
H       -2.43634494       3.33058009       4.66365597
H       -4.70434260       3.87033336       4.87230306
H       -6.50242795       4.20688281       6.23923560
H       -8.42151067       4.59549034       7.76302216
H      -10.52034894       5.78541792       8.26385598
H      -11.29116943       7.63132955       6.79730630
H       -9.92453215       8.33431488       4.87188011
H       -7.89996387       8.11341151       3.53401167
H       -4.96606352       6.36745573       2.30055274
H       -4.61077932      10.69882234       0.91639541
H       -2.76109083      10.45328124      -0.97330438
C       -1.76051918       7.88741923      -1.46263863
C       -0.93059179       7.51972357      -2.25665149
Br       0.41133062       6.92519078      -3.54050313
C        1.78145680      -1.78145680       1.78145680
C        1.65869710      -1.86330586       3.14415157
C        2.60470959      -2.78386292       3.69818335
C        3.39710804      -3.37351059       2.72705646
S        3.00116595      -2.77056434       1.16166255
C        4.41609734      -4.41069625       2.82338627
O        4.79275442      -5.05030035       1.84453745
N        4.92781648      -4.63493021       4.09551507
C        5.92007955      -5.61072500       4.40750250
C        6.84908605      -5.24770790       5.39939185
C        7.94703882      -6.07013419       5.71126455
C        8.92163184      -5.68812815       6.65153903
C       10.04452732      -6.48572010       6.88053246
C       10.21031736      -7.67551240       6.18001745
C        9.23446423      -8.08602587       5.27084070
C        8.09658134      -7.29805867       5.03864750
C        7.10067825      -7.71406875       4.14183344
C        6.00070415      -6.90192479       3.83955034
N        4.96310703      -7.38839214       3.01086787
C        4.60541516      -8.70376358       2.78056730
O        5.15974943      -9.66671119       3.30602843
C        3.45507621      -8.89338849       1.89713704
C        2.88866853     -10.10762754       1.53977301
C        1.77851903      -9.96197406       0.65617017
C        1.53855993      -8.64002859       0.38478399
S        2.60510372      -7.58964132       1.17266644
H        0.92388186      -1.31379438       3.71977009
H        2.65364127      -3.02359425       4.75334547
H        4.83779463      -3.86506295       4.74412143
H        6.76113909      -4.28659216       5.90081510
H        8.81980143      -4.75689028       7.20333146
H       10.79745574      -6.17236993       7.59979718
H       11.09372767      -8.28751404       6.33856357
H        9.37466893      -9.02201749       4.73404072
H        7.21866610      -8.67616198       3.65255898
H        4.38504772      -6.68581679       2.56320748
H        3.26711081     -11.05784276       1.90104350
H        1.20311021     -10.78568102       0.25227645
C        0.48234655      -8.18447323      -0.48152000
C       -0.40223216      -7.80294561      -1.20704959
Br      -1.83252111      -7.18604772      -2.38016957
C       -0.00445707       0.01189536      -1.78238275
H       -0.66409135       0.67374010      -2.43557963
H        0.65740317      -0.63156657      -2.45157240
C       -0.90989263      -0.90692880      -0.91072765
C        0.90977584       0.90977584      -0.90977584
C       -0.00465871       1.77757030       0.00794375
H       -0.66225468       2.44313916      -0.64384735
H        0.64322798       2.43503045       0.67728295
C       -1.78241447       0.00034974      -0.00472694
H       -2.45427497      -0.65498947       0.64260836
H       -2.43311707       0.67328779      -0.65473579
C       -0.91132561       0.90220522       0.91563759
C       -0.01476271      -0.02253852       1.78660255
H       -0.67934791      -0.69751639       2.42135241
H        0.63392994       0.61504881       2.47327442
C        0.01484550      -1.77751727      -0.01636693
H        0.67870853      -2.42144646      -0.68295456
H       -0.62264859      -2.45592969       0.64226336
C        1.78714474       0.01002794       0.00389507
H        2.44202412       0.67113390       0.66197326
H        2.45385902      -0.65136977      -0.64189061
C        0.91606151      -0.90478549       0.90901405
