90
Properties=species:S:1:pos:R:3 pbc="F F F"
C        1.79156157       1.79156157      -1.79156157
C        1.49236489       3.14232496      -1.93358229
C        2.30301488       3.94623438      -2.74075509
Br       1.82874493       5.78214433      -2.91273310
C        3.44273999       3.43062770      -3.39062677
N        4.14907617       4.21740261      -4.32140542
C        3.69580952       2.04707501      -3.25789589
C        2.88468806       1.23605147      -2.44840982
C        4.86177786       1.42100735      -3.92523480
S        4.77667751       0.13839535      -4.98869064
N        6.08563201       1.95195337      -3.60238882
H        0.62757281       3.56666943      -1.42966233
H        5.08228617       3.88596823      -4.55296077
H        4.09421296       5.21851271      -4.15283224
H        3.10810650       0.17769040      -2.33499137
H        6.20567408       2.64469157      -2.87270883
H        6.91920733       1.50874052      -3.97385250
C       -1.79156157      -1.79156157      -1.79156157
C       -1.22997321      -2.86732585      -2.47097308
C       -2.04110538      -3.67278276      -3.27611621
Br      -1.20947937      -5.11644335      -4.19769964
C       -3.42745451      -3.44502148      -3.39151847
N       -4.19246375      -4.16700695      -4.32841350
C       -3.95905435      -2.32111632      -2.72060975
C       -3.14848402      -1.50966901      -1.91099633
C       -5.40316980      -1.99864459      -2.80620561
S       -6.02575946      -0.54372411      -3.33427992
N       -6.25777919      -2.98978815      -2.39240686
H       -0.16585581      -3.07272233      -2.38532642
H       -5.19878675      -4.13838335      -4.18404508
H       -3.83018237      -5.09240799      -4.54296754
H       -3.57782927      -0.66344211      -1.37951688
H       -5.93357353      -3.84100226      -1.94849870
H       -7.25190042      -2.78993525      -2.35996467
C       -1.79156157       1.79156157       1.79156157
C       -3.06837637       1.36230704       2.13758872
C       -3.87179841       2.17209984       2.94610610
Br      -5.61759612       1.53934406       3.36668218
C       -3.40813015       3.40317220       3.45269211
N       -4.28696665       4.27142264       4.12949490
C       -2.12237164       3.82823825       3.05017053
C       -1.31210233       3.01844329       2.23860373
C       -1.56746547       5.11936259       3.52119194
S       -1.03094100       6.34645140       2.52637110
N       -1.48766851       5.26906622       4.88323947
H       -3.44255390       0.40928333       1.77206734
H       -3.84086159       5.00295440       4.67739918
H       -5.05402475       3.80491807       4.60661507
H       -0.31398175       3.34781032       1.95899619
H       -1.68196575       4.51247010       5.52863864
H       -1.04478596       6.10322246       5.25379192
C        1.79156157      -1.79156157       1.79156157
C        2.91854451      -1.24956317       2.40016446
C        3.72229778      -2.06004375       3.20766282
Br       5.26308601      -1.26556684       3.99496952
C        3.40103324      -3.41063001       3.45233121
N        4.30659942      -4.24585468       4.13543009
C        2.27259134      -3.94049465       2.78769443
C        1.46258302      -3.13047470       1.97609163
C        1.87716199      -5.35670548       2.97415253
S        1.69571626      -6.46637015       1.74167709
N        1.63196229      -5.73844181       4.26957010
H        3.17836369      -0.20626122       2.23927966
H        3.91437667      -5.11310931       4.49372920
H        4.91133619      -3.76092654       4.79329517
H        0.58185375      -3.54662359       1.49231093
H        1.60605995      -5.07875915       5.03825539
H        1.28478380      -6.67621436       4.44080218
C       -0.00445707       0.01189536      -1.78238275
H       -0.66409135       0.67374010      -2.43557963
H        0.65740317      -0.63156657      -2.45157240
C       -0.90989263      -0.90692880      -0.91072765
C        0.90977584       0.90977584      -0.90977584
C       -0.00465871       1.77757030       0.00794375
H       -0.66225468       2.44313916      -0.64384735
H        0.64322798       2.43503045       0.67728295
C       -1.78241447       0.00034974      -0.00472694
H       -2.45427497      -0.65498947       0.64260836
H       -2.43311707       0.67328779      -0.65473579
C       -0.91132561       0.90220522       0.91563759
C       -0.01476271      -0.02253852       1.78660255
H       -0.67934791      -0.69751639       2.42135241
H        0.63392994       0.61504881       2.47327442
C        0.01484550      -1.77751727      -0.01636693
H        0.67870853      -2.42144646      -0.68295456
H       -0.62264859      -2.45592969       0.64226336
C        1.78714474       0.01002794       0.00389507
H        2.44202412       0.67113390       0.66197326
H        2.45385902      -0.65136977      -0.64189061
C        0.91606151      -0.90478549       0.90901405
