77
Properties=species:S:1:pos:R:3 pbc="F F F"
C        0.00000000       0.00000000       0.00000000
C        0.88165754       0.88165754      -0.88165754
C        0.58246086       2.23242094      -1.02367827
C        1.39311085       3.03633036      -1.83085106
C        2.53283597       2.52072367      -2.48072274
N        3.23917214       3.30749859      -3.41150139
C        2.78590550       1.13717099      -2.34799186
C        1.97478403       0.32614745      -1.53850579
C        3.95187383       0.51110332      -3.01533077
S        3.86677349      -0.77150868      -4.07878662
N        5.17572799       1.04204934      -2.69248479
H       -0.28233122       2.65676541      -0.51975830
H        4.17238214       2.97606421      -3.64305675
H        3.18430893       4.30860868      -3.24292821
H        2.19820247      -0.73221363      -1.42508734
H        5.29577006       1.73478755      -1.96280480
H        6.00930330       0.59883649      -3.06394847
C        1.03441226       4.42486092      -1.96092102
C        0.73400219       5.58775527      -2.06985460
Br       0.24826452       7.46805708      -2.24599100
C       -0.88165754      -0.88165754      -0.88165754
C       -0.47042372      -2.17264334      -1.19549301
C       -1.28135235      -2.97695857      -2.00198136
C       -2.52843276      -2.52587861      -2.47997102
N       -3.25100457      -3.29015736      -3.41701020
C       -2.89817762      -1.19661701      -2.17627371
C       -2.08722157      -0.38543465      -1.36678106
C       -4.18375415      -0.63734818      -2.65720560
S       -4.33701176       0.74360817      -3.58064784
N       -5.30909603      -1.32476683      -2.27639927
H        0.48017852      -2.54872505      -0.82564597
H       -4.23122466      -3.03961409      -3.52066435
H       -3.08208757      -4.29123030      -3.36252795
H       -2.39831011       0.62705964      -1.11982572
H       -5.28302308      -2.09352780      -1.61681153
H       -6.21646535      -0.93945707      -2.51616585
C       -0.80631486      -4.30010898      -2.31377036
C       -0.40847097      -5.40824744      -2.57489366
Br       0.23480896      -7.20001362      -2.99710794
C       -0.88165754       0.88165754       0.88165754
C       -2.11779661       0.41021222       1.31055124
C       -2.92129395       1.22024296       2.11875536
C       -2.49587277       2.49549194       2.54291768
N       -3.38373752       3.35373816       3.22069644
C       -1.25327463       2.96037714       2.05741659
C       -0.44309022       2.15051665       1.24583041
C       -0.74149302       4.29808578       2.43872913
S       -0.31418769       5.49827468       1.36158906
N       -0.60490686       4.51882380       3.78653146
H       -2.46106955      -0.57640794       1.00953089
H       -2.94908674       4.13184247       3.71057389
H       -4.10327107       2.87574333       3.75683142
H        0.52310972       2.51242777       0.90175814
H       -0.73066927       3.78685816       4.47583498
H       -0.18695196       5.39035484       4.09478146
C       -4.19976619       0.69615716       2.52427085
C       -5.27048669       0.25723531       2.86389008
Br      -7.00175117      -0.45246421       3.41302564
C        0.88165754      -0.88165754       0.88165754
C        2.19334541      -0.50108643       1.14412823
C        2.99671868      -1.31061989       1.95295371
C        2.50070466      -2.49114656       2.54243117
N        3.36988715      -3.36909575       3.21918923
C        1.17745395      -2.86979440       2.22381999
C        0.36709667      -2.06006042       1.41228018
C        0.58575837      -4.10734228       2.78520728
S       -0.05825540      -5.35211689       1.88018995
N        0.56748769      -4.18745770       4.15531673
H        2.59386653       0.41331754       0.71364351
H        2.91738951      -4.05019263       3.82392095
H        4.18142531      -2.91945073       3.63496979
H       -0.65844672      -2.35182138       1.19770152
H        0.83000010      -3.41155849       4.75180382
H        0.10437168      -4.97958486       4.58813172
C        4.35281951      -0.88438668       2.18298802
C        5.48855395      -0.52741636       2.37564176
Br       7.32494050       0.04977445       2.68714655
