69
Properties=species:S:1:pos:R:3 pbc="F F F"
C        0.00000000       0.00000000       0.00000000
C        0.88165754       0.88165754      -0.88165754
C        0.58246086       2.23242094      -1.02367827
C        1.39311085       3.03633036      -1.83085106
Br       0.91884091       4.87224031      -2.00282907
C        2.53283597       2.52072367      -2.48072274
N        3.23917214       3.30749859      -3.41150139
C        2.78590550       1.13717099      -2.34799186
C        1.97478403       0.32614745      -1.53850579
C        3.95187383       0.51110332      -3.01533077
S        3.86677349      -0.77150868      -4.07878662
N        5.17572799       1.04204934      -2.69248479
H       -0.28233122       2.65676541      -0.51975830
H        4.17238214       2.97606421      -3.64305675
H        3.18430893       4.30860868      -3.24292821
H        2.19820247      -0.73221363      -1.42508734
H        5.29577006       1.73478755      -1.96280480
H        6.00930330       0.59883649      -3.06394847
C       -0.88165754      -0.88165754      -0.88165754
C       -0.58776889      -2.23432382      -1.01646735
C       -1.39840451      -3.03821813      -1.82366964
Br      -0.93144224      -4.87691726      -1.98555080
C       -2.53301035      -2.52049542      -2.48077661
N       -3.23871945      -3.30825284      -3.41119983
C       -2.78058842      -1.13528257      -2.35519736
C       -1.96946025      -0.32426620      -1.54571083
C       -3.94087643      -0.50706302      -3.03036848
S       -3.84551202       0.77049036      -4.09902977
N       -5.16844433      -1.03124098      -2.71057681
H        0.27294642      -2.66022582      -0.50691309
H       -4.16944767      -2.97376634      -3.64828909
H       -3.18898240      -4.30884417      -3.23801925
H       -2.18872925       0.73554717      -1.43789411
H       -5.29470656      -1.72024273      -1.97841313
H       -5.99843895      -0.58602650      -3.08762282
C       -0.88165754       0.88165754       0.88165754
C       -2.14345390       0.43536744       1.25973873
C       -2.94690190       1.24525454       2.06813584
Br      -4.67227351       0.58822632       2.53341046
C       -2.49730351       2.49411430       2.54286457
N       -3.37969643       3.35854026       3.21993544
C       -1.22753781       2.93531325       2.10821729
C       -0.41730161       2.12549353       1.29664213
C       -0.68853291       4.24522659       2.54454843
S       -0.19394857       5.46300975       1.51709311
N       -0.58627219       4.42216999       3.90181994
H       -2.50623845      -0.53120458       0.91915862
H       -2.93742119       4.10849182       3.74559009
H       -4.12877213       2.88697664       3.72009706
H        0.56902660       2.46800733       0.99209546
H       -0.75416285       3.67445671       4.56474285
H       -0.15246092       5.27128939       4.24833795
C        0.88165754      -0.88165754       0.88165754
C        2.25053449      -0.64390783       0.94411775
C        3.05390728      -1.45273742       1.75364757
Br       4.92304636      -1.09119134       1.77967259
C        2.50708949      -2.48658445       2.54060845
N        3.35080625      -3.38608565       3.22128022
C        1.11989301      -2.72729304       2.42388230
C        0.30931508      -1.91768323       1.61243897
C        0.46878758      -3.80832526       3.20119508
S       -0.42122847      -5.05503632       2.54024358
N        0.61604599      -3.73058791       4.56362822
H        2.69349069       0.15774728       0.35844908
H        2.90508071      -3.93158335       3.95483903
H        4.25409194      -2.99937064       3.48238325
H       -0.76148085      -2.09891865       1.55363839
H        1.03803550      -2.93216353       5.02316339
H        0.12547799      -4.40351939       5.14309088
