90
Properties=species:S:1:pos:R:3 pbc="F F F"
C        1.79801698       1.79801698      -1.79801698
C        1.45192730       3.17012807      -1.92601893
C        2.19663293       4.07067485      -2.71409062
C        3.32433881       3.52958782      -3.38265919
N        4.19040739       4.16191780      -4.18538677
S        5.34411791       3.11623240      -4.72756209
C        4.76469178       1.71757355      -3.91932343
N        5.37433820       0.51660582      -4.02020267
C        3.64023781       2.09664006      -3.21470579
C        2.90188963       1.19699411      -2.43161765
H        0.57692232       3.54287235      -1.39389671
H        6.18281758       0.38824196      -4.62110258
H        5.01681273      -0.32851125      -3.58957139
H        3.14175619       0.14859669      -2.31394718
C        1.80750756       5.45361332      -2.81238932
C        1.48161506       6.61182429      -2.89471448
Br       0.95467445       8.48455347      -3.02782730
C       -1.79801698      -1.79801698      -1.79801698
C       -1.15802217      -2.69309473      -2.69695740
C       -1.87625411      -3.55026126      -3.55488303
C       -3.29007676      -3.47208119      -3.47442786
N       -4.19670573      -4.16894846      -4.17205777
S       -5.72428833      -3.73533873      -3.72828534
C       -5.28360689      -2.56498428      -2.55299759
N       -6.19836195      -1.86954720      -1.84323754
C       -3.90446834      -2.52507902      -2.52203630
C       -3.19359331      -1.67028750      -1.66662057
H       -0.06888209      -2.71985306      -2.72495624
H       -7.19263903      -1.98552556      -2.01399752
H       -5.95506344      -1.14078997      -1.18201945
H       -3.65278150      -0.98019995      -0.97131861
C       -1.18324264      -4.44168551      -4.44858204
C       -0.60284554      -5.18825332      -5.19705496
Br       0.33560748      -6.39539032      -6.40727237
C       -1.79801698       1.79801698       1.79801698
C       -2.53838772       1.17263288       2.83705370
C       -3.38195772       1.89214889       3.70729180
C       -3.45560878       3.29163244       3.48934460
N       -4.17489403       4.19614422       4.16667370
S       -3.93375952       5.70554924       3.54860364
C       -2.83387562       5.25821248       2.30950065
N       -2.29054512       6.15860242       1.46199915
C       -2.66452006       3.89129936       2.39576424
C       -1.82397315       3.17907906       1.52744917
H       -2.45113195       0.09426042       2.96829902
H       -2.55147561       7.13919005       1.50149645
H       -1.67880323       5.90425285       0.69481679
H       -1.24741154       3.62754573       0.72934278
C       -4.11200464       1.21437809       4.74712747
C       -4.72341893       0.64674504       5.61798985
Br      -5.71202414      -0.27106959       7.02610066
C        1.79801698      -1.79801698       1.79801698
C        3.17191261      -1.45668262       1.91947907
C        4.07274580      -2.20215143       2.70650118
C        3.53037541      -3.32643751       3.37977289
N        4.16285510      -4.19290502       4.18195184
S        3.11329543      -5.33629171       4.73832526
C        1.71284374      -4.75208817       3.93665685
N        0.50687164      -5.34839937       4.05587568
C        2.09516709      -3.63631276       3.22010381
C        1.19527390      -2.89730577       2.43792171
H        3.54547613      -0.58386066       1.38435459
H        0.39486782      -6.20047362       4.59682067
H       -0.31783944      -5.04525009       3.55046222
H        0.14483212      -3.13172468       2.32774325
C        5.45700405      -1.81654289       2.79996326
C        6.61632033      -1.49359574       2.87823775
Br       8.49083671      -0.97141752       3.00480099
C       -0.00445707       0.01189536      -1.78238275
H       -0.66409135       0.67374010      -2.43557963
H        0.65740317      -0.63156657      -2.45157240
C       -0.90989263      -0.90692880      -0.91072765
C        0.90977584       0.90977584      -0.90977584
C       -0.00465871       1.77757030       0.00794375
H       -0.66225468       2.44313916      -0.64384735
H        0.64322798       2.43503045       0.67728295
C       -1.78241447       0.00034974      -0.00472694
H       -2.45427497      -0.65498947       0.64260836
H       -2.43311707       0.67328779      -0.65473579
C       -0.91132561       0.90220522       0.91563759
C       -0.01476271      -0.02253852       1.78660255
H       -0.67934791      -0.69751639       2.42135241
H        0.63392994       0.61504881       2.47327442
C        0.01484550      -1.77751727      -0.01636693
H        0.67870853      -2.42144646      -0.68295456
H       -0.62264859      -2.45592969       0.64226336
C        1.78714474       0.01002794       0.00389507
H        2.44202412       0.67113390       0.66197326
H        2.45385902      -0.65136977      -0.64189061
C        0.91606151      -0.90478549       0.90901405
