157
Properties=species:S:1:pos:R:3 pbc="F F F"
C        0.00000000       0.00000000       0.00000000
C        0.88156751       0.88156751      -0.88156751
C        0.30495261       1.89191352      -1.64664550
C        1.11433203       2.69227167      -2.45888473
C        2.50325739       2.49199754      -2.51516677
C        3.06408204       1.47113473      -1.73156882
C        2.25749981       0.66781584      -0.91823655
C        3.31708956       3.33061149      -3.39295175
N        2.92940046       4.29431214      -4.21143760
C        4.09337330       4.69774876      -4.81452235
C        4.33323227       5.66902345      -5.79564924
C        5.65058495       5.85867484      -6.25568959
C        6.69603059       5.09232648      -5.71800814
C        6.47335733       4.12032285      -4.72855355
C        5.15706314       3.96423543      -4.32263604
O        4.66875309       3.08430653      -3.40331861
N        5.82582726       6.82612068      -7.26933404
C        7.00251112       7.21998432      -7.87580370
O        8.12232112       6.79150535      -7.62117340
C        6.87594023       8.21660783      -8.98515027
C        7.82912432       8.11014251     -10.01673044
C        7.79387912       8.97690393     -11.10806480
C        6.81767418       9.96379682     -11.19225005
C        5.87638281      10.08915193     -10.16985166
C        5.90290984       9.22549595      -9.06534402
Cl       4.71288468       9.51224353      -7.84468826
H       -0.76786451       2.06435725      -1.62371375
H        0.65339944       3.47716975      -3.05748573
H        4.13641992       1.28594095      -1.75054606
H        2.71297761      -0.12012012      -0.32384106
H        3.49856683       6.24203834      -6.18231044
H        7.72041286       5.22223823      -6.05755051
H        7.27702343       3.52281292      -4.31701038
H        4.97910387       7.29658809      -7.56955595
H        8.59875521       7.34043569      -9.96429789
H        6.78438181      10.64283406     -12.04110453
H        5.12414146      10.87301128     -10.23776270
C        8.77149006       8.84856150     -12.15754328
C        9.59023922       8.74107472     -13.03648150
Br      10.91408736       8.56727768     -14.45765027
C       -0.88156751      -0.88156751      -0.88156751
C       -2.26561990      -0.84311952      -0.73477220
C       -3.06952253      -1.65760327      -1.53836264
C       -2.50092986      -2.51612065      -2.49337119
C       -1.10371680      -2.53497100      -2.62809778
C       -0.29602610      -1.72209301      -1.82543308
C       -3.36862464      -3.37183151      -3.30019666
N       -4.68496270      -3.49196833      -3.25821917
C       -4.95368783      -4.46194592      -4.19001065
C       -6.16363305      -5.04550944      -4.58876247
C       -6.13967600      -6.05524898      -5.57002441
C       -4.91891835      -6.44630908      -6.14113777
C       -3.69842119      -5.86578539      -5.75802715
C       -3.77742598      -4.88804267      -4.77846595
O       -2.75126607      -4.18914833      -4.21596383
N       -7.38483335      -6.63041794      -5.90603068
C       -7.64388084      -7.61295583      -6.84146247
O       -6.81542597      -8.15676871      -7.56280519
C       -9.05977347      -8.09016582      -6.92775904
C       -9.23043873      -9.44243998      -7.28311856
C      -10.50636597      -9.99642610      -7.37605578
C      -11.63157326      -9.21940490      -7.12274289
C      -11.47678223      -7.87468082      -6.78392336
C      -10.19893277      -7.30473628      -6.69008076
Cl     -10.14196186      -5.61972915      -6.30812545
H       -2.72972726      -0.19032122      -0.00015800
H       -4.15117352      -1.62401849      -1.41286290
H       -0.62769921      -3.18849947      -3.35670824
H        0.78397615      -1.75697212      -1.94370259
H       -7.08500542      -4.71250647      -4.12540372
H       -4.87678556      -7.22293355      -6.90048249
H       -2.75441970      -6.17047608      -6.19195094
H       -8.18349681      -6.25632296      -5.40542814
H       -8.35737083     -10.06322269      -7.48289527
H      -12.62966411      -9.64557512      -7.19308117
H      -12.36368672      -7.27083267      -6.60039605
C      -10.66188305     -11.38281731      -7.73289448
C      -10.79212860     -12.54391994      -8.03174690
Br     -11.00272464     -14.42132470      -8.51496597
C       -0.88156751       0.88156751       0.88156751
C       -2.03437839       1.45619933       0.35293391
C       -2.83520696       2.26938019       1.16090128
C       -2.49360287       2.51622994       2.50058890
C       -1.32987104       1.92254194       3.01437260
C       -0.52568420       1.10894589       2.20892211
C       -3.33969131       3.39046282       3.31049867
N       -4.43247921       4.04591700       2.95675399
C       -4.77766472       4.73916747       4.08881223
C       -5.82960362       5.63086726       4.33743407
C       -5.92975125       6.22494751       5.61025063
C       -4.99448529       5.90538408       6.60649584
C       -3.93894349       5.00764585       6.37564440
C       -3.87840117       4.46344363       5.10208981
O       -2.95111784       3.59246640       4.61279399
N       -6.98890267       7.14125496       5.79112434
C       -7.32367621       7.84043667       6.93418626
O       -6.74821451       7.77249145       8.01429391
C       -8.45608595       8.81114297       6.81046940
C       -8.37343762       9.95679010       7.62576956
C       -9.36561046      10.93498411       7.57825328
C      -10.45556866      10.79164132       6.72651108
C      -10.55668175       9.65445226       5.92425239
C       -9.56691149       8.66186034       5.96497798
Cl      -9.83006568       7.28117895       4.95857183
H       -2.31825561       1.28386698      -0.68191611
H       -3.73270877       2.71838897       0.73695717
H       -1.03298445       2.09229961       4.04762287
H        0.37370861       0.66375017       2.62665700
H       -6.53279878       5.84817766       3.54193918
H       -5.05281393       6.35130929       7.59607838
H       -3.21191269       4.76466462       7.14026942
H       -7.58168608       7.28295688       4.98060495
H       -7.52406446      10.08264396       8.29678037
H      -11.23272587      11.55124824       6.68434630
H      -11.42001764       9.54445425       5.27044355
C       -9.26091049      12.10364779       8.41303656
C       -9.17322426      13.08240362       9.11216755
Br      -9.03144305      14.66496903      10.24260323
C        0.88156751      -0.88156751       0.88156751
C        0.51185007      -2.20052668       1.13113488
C        1.31746442      -3.00268649       1.94533752
C        2.49649911      -2.49707430       2.51684829
C        2.85288838      -1.16618640       2.24771080
C        2.04907915      -0.36027768       1.43419537
C        3.30294624      -3.35508893       3.38261763
N        3.07572993      -4.60317338       3.75624689
C        4.12027918      -4.88655158       4.59881365
C        4.42515577      -6.04173583       5.33101335
C        5.57176135      -6.04467246       6.14851557
C        6.39367422      -4.90857579       6.20411519
C        6.10620725      -3.74566320       5.47036329
C        4.95858226      -3.79128675       4.69406559
O        4.44388188      -2.80132028       3.91117608
N        5.80865397      -7.22335975       6.88926825
C        6.86066026      -7.49605753       7.74158135
O        7.79477076      -6.74429470       7.99593441
C        6.80983981      -8.80819412       8.45966439
C        7.38434913      -8.82603146       9.74561668
C        7.37684381      -9.99162769      10.51037635
C        6.80452887     -11.15705901      10.01213317
C        6.24495420     -11.15654695       8.73388526
C        6.24885052      -9.99145510       7.95344418
Cl       5.56715198     -10.13163064       6.37103385
H       -0.39789782      -2.61414438       0.70395992
H        1.01741236      -4.03197765       2.13866489
H        3.75885404      -0.73977179       2.67428110
H        2.34211108       0.66899850       1.24358597
H        3.76631033      -6.89908137       5.25752392
H        7.28381729      -4.88874899       6.82763532
H        6.73474867      -2.86529719       5.51680087
H        5.12542908      -7.96128032       6.75853850
H        7.83494743      -7.91952294      10.14901842
H        6.79500255     -12.06953710      10.60378075
H        5.81111959     -12.07685848       8.34693738
C        7.96169033      -9.98964419      11.82626032
C        8.45149929      -9.98798301      12.92831314
Br       9.24347896      -9.98529701      14.71023934
