170
Properties=species:S:1:pos:R:3 pbc="F F F"
C        1.79147153       1.79147153      -1.79147153
C        1.21485663       2.80181755      -2.55654952
C        2.02423606       3.60217569      -3.36878876
C        3.41316142       3.40190156      -3.42507080
C        3.97398606       2.38103875      -2.64147284
C        3.16740383       1.57771987      -1.82814057
C        4.22699358       4.24051552      -4.30285577
N        3.83930448       5.20421616      -5.12134163
C        5.00327732       5.60765278      -5.72442638
C        5.24313630       6.57892747      -6.70555326
C        6.56048898       6.76857886      -7.16559362
C        7.60593461       6.00223051      -6.62791216
C        7.38326136       5.03022687      -5.63845758
C        6.06696716       4.87413946      -5.23254006
O        5.57865711       3.99421056      -4.31322264
N        6.73573128       7.73602470      -8.17923806
C        7.91241515       8.12988834      -8.78570773
O        9.03222514       7.70140938      -8.53107743
C        7.78584426       9.12651185      -9.89505429
C        8.73902834       9.02004653     -10.92663447
C        8.70378314       9.88680796     -12.01796883
Br       9.98664200       9.71839206     -13.39513505
C        7.72757820      10.87370085     -12.10215408
C        6.78628684      10.99905595     -11.07975569
C        6.81281386      10.13539997      -9.97524805
Cl       5.62278870      10.42214756      -8.75459228
H        0.14203951       2.97426127      -2.53361777
H        1.56330346       4.38707377      -3.96738975
H        5.04632395       2.19584497      -2.66045008
H        3.62288163       0.78978391      -1.23374509
H        4.40847085       7.15194237      -7.09221447
H        8.63031689       6.13214225      -6.96745453
H        8.18692745       4.43271694      -5.22691441
H        5.88900789       8.20649212      -8.47945997
H        9.50865923       8.25033972     -10.87420191
H        7.69428584      11.55273809     -12.95100855
H        6.03404549      11.78291530     -11.14766673
C       -1.79147153      -1.79147153      -1.79147153
C       -2.79051364      -1.21290474      -2.56980531
C       -3.60116285      -2.02406117      -3.36997649
C       -3.42287943      -3.41678374      -3.40047060
C       -2.40627304      -3.97834336      -2.61188125
C       -1.59365767      -3.17015587      -1.80945073
C       -4.30325173      -4.23782648      -4.22928667
N       -5.31939356      -3.85919260      -4.98627611
C       -5.80831734      -5.03792683      -5.48911231
C       -6.89422894      -5.29758059      -6.33580750
C       -7.18563053      -6.63250287      -6.67652807
C       -6.38211126      -7.67153006      -6.18243596
C       -5.28548789      -7.42733825      -5.33911967
C       -5.05236706      -6.09774240      -5.02353722
O       -4.07779106      -5.59308927      -4.21520998
N       -8.31188739      -6.83516767      -7.50393898
C       -8.80067488      -8.02824240      -7.99909393
O       -8.31940450      -9.13893670      -7.80637074
C      -10.06851362      -7.94850327      -8.79039351
C      -10.91971316      -9.06705097      -8.69894521
C      -12.13500446      -9.09198774      -9.38156772
Br     -13.26544884     -10.59912573      -9.23559454
C      -12.52346739      -8.01244964     -10.16751609
C      -11.68269511      -6.90433340     -10.27806997
C      -10.45633200      -6.86823041      -9.59889947
Cl      -9.48511285      -5.46098737      -9.85342832
H       -2.95124185      -0.13806466      -2.56061204
H       -4.38328053      -1.56264847      -3.97183799
H       -2.23961019      -5.05388105      -2.60912776
H       -0.81591296      -3.62739344      -1.20310423
H       -7.48764933      -4.46643864      -6.69853971
H       -6.58801260      -8.70903375      -6.43286733
H       -4.66812913      -8.22757696      -4.95085271
H       -8.80547507      -5.99243655      -7.77704836
H      -10.62845144      -9.91929679      -8.08545263
H      -13.47039947      -8.02541569     -10.70221731
H      -11.98893761      -6.06962014     -10.90606977
C       -1.79147153       1.79147153       1.79147153
C       -1.43382622       3.11716691       2.02223057
C       -2.23930656       3.91942349       2.83647046
C       -3.40618387       3.40720650       3.42674341
C       -3.75058595       2.06951220       3.17639950
C       -2.94686084       1.26349487       2.36290856
C       -4.21255139       4.26588012       4.29193336
N       -3.99521836       5.52052050       4.64912340
C       -5.03347023       5.80172784       5.50015842
C       -5.34314448       6.96159945       6.22287310
C       -6.48057237       6.96098693       7.05310217
C       -7.28902296       5.81653838       7.13051593
C       -6.99668668       4.64872888       6.40653025
C       -5.85832716       4.69836902       5.61695050
O       -5.34127068       3.70545348       4.83936615
N       -6.72243987       8.14520868       7.78334550
C       -7.76791994       8.41576353       8.64432775
O       -8.69066053       7.65658584       8.91746558
C       -7.72385849       9.73635509       9.34719682
C       -8.28423226       9.76224175      10.63923534
C       -8.28131910      10.93635429      11.39088654
Br      -9.02949898      10.94460743      13.12606270
C       -7.72767434      12.10240021      10.87335857
C       -7.18234223      12.09375743       9.58899881
C       -7.18182644      10.92001336       8.82162208
Cl      -6.51933757      11.04998360       7.23020737
H       -0.53356931       3.53603283       1.58031642
H       -1.94869266       4.95408333       3.01499099
H       -4.64692427       1.63788614       3.61780858
H       -3.23042550       0.22895837       2.18702676
H       -4.69481279       7.82532208       6.13249281
H       -8.17191661       5.79383418       7.76416288
H       -7.61475998       3.76202133       6.46977748
H       -6.04902713       8.88914959       7.63678326
H       -8.72013179       8.85537272      11.05769636
H       -7.72182149      13.02150677      11.45470422
H       -6.76317662      13.01442637       9.18702453
C        1.79147153      -1.79147153       1.79147153
C        3.17556522      -1.64522133       1.75243715
C        3.98028700      -2.45962542       2.55528809
C        3.41250796      -3.42537452       3.40225130
C        2.01469210      -3.55214352       3.42966204
C        1.20625849      -2.73967176       2.62733402
C        4.28356330      -4.27656244       4.21023915
N        5.60490948      -4.30069667       4.25925612
C        5.88003020      -5.31691573       5.13841054
C        7.09959684      -5.84267907       5.58534111
C        7.08311932      -6.92267748       6.48886466
C        5.85830230      -7.44020349       6.93757149
C        4.62737318      -6.91938152       6.50519111
C        4.70089821      -5.86748253       5.60526594
O        3.66692127      -5.20178852       5.01738052
N        8.34147370      -7.43289649       6.87662386
C        8.60765957      -8.46256137       7.75779028
O        7.77405102      -9.11587088       8.37479005
C       10.04595282      -8.84456640       7.91689118
C       10.29271602     -10.20448770       8.18850563
C       11.59710652     -10.67316564       8.33828776
Br      11.90438364     -12.50377770       8.69200777
C       12.67553769      -9.80236563       8.22552980
C       12.44397485      -8.45008874       7.97103488
C       11.13653328      -7.96560347       7.82132514
Cl      10.97965247      -6.26474704       7.55512903
H        3.63947699      -0.90802518       1.10241639
H        5.06245865      -2.34099877       2.51430956
H        1.53940884      -4.29044783       4.07276233
H        0.12633080      -2.85892557       2.66115426
H        8.02344416      -5.41199177       5.21719176
H        5.82172421      -8.27287528       7.63531418
H        3.68094523      -7.32127388       6.84433968
H        9.14277561      -6.96712394       6.46506043
H        9.45706365     -10.89818330       8.27795391
H       13.69551795     -10.16166391       8.34085061
H       13.29352824      -7.77349307       7.89760620
C       -0.00445707       0.01189536      -1.78238275
H       -0.66409135       0.67374010      -2.43557963
H        0.65740317      -0.63156657      -2.45157240
C       -0.90989263      -0.90692880      -0.91072765
C        0.90977584       0.90977584      -0.90977584
C       -0.00465871       1.77757030       0.00794375
H       -0.66225468       2.44313916      -0.64384735
H        0.64322798       2.43503045       0.67728295
C       -1.78241447       0.00034974      -0.00472694
H       -2.45427497      -0.65498947       0.64260836
H       -2.43311707       0.67328779      -0.65473579
C       -0.91132561       0.90220522       0.91563759
C       -0.01476271      -0.02253852       1.78660255
H       -0.67934791      -0.69751639       2.42135241
H        0.63392994       0.61504881       2.47327442
C        0.01484550      -1.77751727      -0.01636693
H        0.67870853      -2.42144646      -0.68295456
H       -0.62264859      -2.45592969       0.64226336
C        1.78714474       0.01002794       0.00389507
H        2.44202412       0.67113390       0.66197326
H        2.45385902      -0.65136977      -0.64189061
C        0.91606151      -0.90478549       0.90901405
