178
Properties=species:S:1:pos:R:3 pbc="F F F"
C        1.79147153       1.79147153      -1.79147153
C        1.21485663       2.80181755      -2.55654952
C        2.02423606       3.60217569      -3.36878876
C        3.41316142       3.40190156      -3.42507080
C        3.97398606       2.38103875      -2.64147284
C        3.16740383       1.57771987      -1.82814057
C        4.22699358       4.24051552      -4.30285577
N        3.83930448       5.20421616      -5.12134163
C        5.00327732       5.60765278      -5.72442638
C        5.24313630       6.57892747      -6.70555326
C        6.56048898       6.76857886      -7.16559362
C        7.60593461       6.00223051      -6.62791216
C        7.38326136       5.03022687      -5.63845758
C        6.06696716       4.87413946      -5.23254006
O        5.57865711       3.99421056      -4.31322264
N        6.73573128       7.73602470      -8.17923806
C        7.91241515       8.12988834      -8.78570773
O        9.03222514       7.70140938      -8.53107743
C        7.78584426       9.12651185      -9.89505429
C        8.73902834       9.02004653     -10.92663447
C        8.70378314       9.88680796     -12.01796883
C        7.72757820      10.87370085     -12.10215408
C        6.78628684      10.99905595     -11.07975569
C        6.81281386      10.13539997      -9.97524805
Cl       5.62278870      10.42214756      -8.75459228
H        0.14203951       2.97426127      -2.53361777
H        1.56330346       4.38707377      -3.96738975
H        5.04632395       2.19584497      -2.66045008
H        3.62288163       0.78978391      -1.23374509
H        4.40847085       7.15194237      -7.09221447
H        8.63031689       6.13214225      -6.96745453
H        8.18692745       4.43271694      -5.22691441
H        5.88900789       8.20649212      -8.47945997
H        9.50865923       8.25033972     -10.87420191
H        7.69428584      11.55273809     -12.95100855
H        6.03404549      11.78291530     -11.14766673
C        9.68139408       9.75846553     -13.06744730
C       10.50014324       9.65097874     -13.94638553
Br      11.82399139       9.47718170     -15.36755430
C       -1.79147153      -1.79147153      -1.79147153
C       -3.17514209      -1.75818918      -1.63989243
C       -3.97900806      -2.57267387      -2.44351858
C       -3.41075727      -3.42604992      -3.40332658
C       -2.01395140      -3.43973104      -3.54281522
C       -1.20629511      -2.62683620      -2.74013296
C       -4.27828692      -4.28196567      -4.21011229
N       -5.59406423      -4.40668520      -4.16411283
C       -5.86266845      -5.37442440      -5.09826364
C       -7.07198278      -5.96072373      -5.49491052
C       -7.04794135      -6.96707016      -6.47964995
C       -5.82780971      -7.35208445      -7.05618312
C       -4.60798612      -6.76873668      -6.67522301
C       -4.68697278      -5.79456677      -5.69210713
O       -3.66127693      -5.09410906      -5.13070432
N       -8.29228388      -7.54530495      -6.81340522
C       -8.55118059      -8.52555939      -7.75127123
O       -7.72334049      -9.06414346      -8.47722799
C       -9.96574317      -9.00725255      -7.83441468
C      -10.13305709     -10.35889202      -8.19376024
C      -11.40742001     -10.91686570      -8.28427421
C      -12.53437331     -10.14450318      -8.02455663
C      -12.38296387      -8.80041165      -7.68172296
C      -11.10672937      -8.22647629      -7.59025623
Cl     -11.05413799      -6.54258084      -7.20280971
H       -3.63896062      -1.10943585      -0.90152209
H       -5.06033617      -2.54316237      -2.31426844
H       -1.53820005      -4.08919454      -4.27522441
H       -0.12658697      -2.65767189      -2.86215177
H       -7.99290094      -5.63239298      -5.02733376
H       -5.78562790      -8.12600359      -7.81828218
H       -3.66443499      -7.06877810      -7.11334570
H       -9.09050704      -7.17559377      -6.30885917
H       -9.25858518     -10.97604892      -8.39856676
H      -13.53125668     -10.57380068      -8.09297512
H      -13.27127009      -8.20018116      -7.49317627
C      -11.55947615     -12.30256572      -8.64526504
C      -11.68682317     -13.46308949      -8.94759485
Br     -11.89273252     -15.33955827      -9.43643659
C       -1.79147153       1.79147153       1.79147153
C       -3.17739808       1.71074429       1.68508134
C       -3.98160922       2.52521092       2.48838037
C       -3.41147280       3.42579855       3.40286243
C       -2.01217305       3.48696414       3.49736047
C       -1.20419678       2.67423266       2.69483482
C       -4.28050563       4.27979345       4.21006580
N       -5.60037675       4.36236446       4.20212106
C       -5.87070269       5.35058820       5.11406559
C       -7.08525209       5.91164840       5.53071653
C       -7.06288819       6.94907239       6.48270088
C       -5.83842799       7.38966236       7.00798692
C       -4.61298995       6.83237380       6.60658207
C       -4.69121862       5.82545254       5.65697552
O       -3.66155523       5.13944458       5.08509050
N       -8.31411370       7.49899556       6.83788479
C       -8.57502525       8.50013970       7.75284627
O       -7.74275009       9.08680824       8.43515362
C      -10.00095864       8.94039657       7.86605519
C      -10.20002559      10.29698197       8.18870178
C      -11.48809619      10.81800102       8.30246271
C      -12.59738128      10.00339334       8.10265851
C      -12.41393427       8.65438339       7.79678082
C      -11.12351556       8.11744572       7.68250060
Cl     -11.02935590       6.42449992       7.34567272
H       -3.64288723       1.02484183       0.98218950
H       -5.06492168       2.45828174       2.39456356
H       -1.53496915       4.17375431       4.19389554
H       -0.12276775       2.74220477       2.78143811
H       -8.00923669       5.54037637       5.10301463
H       -5.79741165       8.18836433       7.74413769
H       -3.66640274       7.17514509       7.00501097
H       -9.11534712       7.08899017       6.37062269
H       -9.33972982      10.94700618       8.34646487
H      -13.60483271      10.40371382       8.18948595
H      -13.28808793       8.02135972       7.65517986
C      -11.67295306      12.20913625       8.62521760
C      -11.82777070      13.37421200       8.89552481
Br     -12.07809772      15.25804096       9.33258871
C        1.79147153      -1.79147153       1.79147153
C        1.20465497      -2.67954290       2.68902583
C        2.01503383      -3.47973278       3.50043390
C        3.41515755      -3.40100494       3.42397128
C        3.98550465      -2.50260224       2.50839076
C        3.17804779      -1.69981477       1.69540172
C        4.23269077      -4.23416931       4.30350480
N        3.84202800      -5.08850623       5.23432803
C        5.01826080      -5.54378231       5.77331337
C        5.26445054      -6.44858422       6.81458227
C        6.59767983      -6.71721283       7.17976880
C        7.65016262      -6.09468987       6.49122478
C        7.42034305      -5.19139286       5.44020990
C        6.09025992      -4.95171755       5.13166921
O        5.59549775      -4.11018835       4.18040422
N        6.78296847      -7.60973647       8.25828911
C        7.97290964      -8.05637329       8.79872829
O        9.09679769      -7.75257701       8.41533724
C        7.86482185      -8.94288365       9.99970490
C        8.91228174      -8.83785461      10.93557300
C        8.90391377      -9.60515138      12.09949477
C        7.86128739     -10.49012767      12.35201806
C        6.82490079     -10.61421759      11.42598009
C        6.82317724      -9.85030499      10.24997965
Cl       5.50882376     -10.12857791       9.16212687
H        0.12357084      -2.75628004       2.77006768
H        1.54665346      -4.16812572       4.20298781
H        5.06680779      -2.41349252       2.42231869
H        3.64164162      -1.00757064       0.99719836
H        4.42353741      -6.91056884       7.31852143
H        8.68670371      -6.28764298       6.75556698
H        8.23027052      -4.70436114       4.91192714
H        5.93076968      -7.97597102       8.66821928
H        9.73484250      -8.14728821      10.75107015
H        7.84854427     -11.09123610      13.25825212
H        6.01982450     -11.31911795      11.62568506
C        9.97902650      -9.47912749      13.04915292
C       10.87943341      -9.37358248      13.84449162
Br      12.33531523      -9.20292513      15.13048702
C       -0.00445707       0.01189536      -1.78238275
H       -0.66409135       0.67374010      -2.43557963
H        0.65740317      -0.63156657      -2.45157240
C       -0.90989263      -0.90692880      -0.91072765
C        0.90977584       0.90977584      -0.90977584
C       -0.00465871       1.77757030       0.00794375
H       -0.66225468       2.44313916      -0.64384735
H        0.64322798       2.43503045       0.67728295
C       -1.78241447       0.00034974      -0.00472694
H       -2.45427497      -0.65498947       0.64260836
H       -2.43311707       0.67328779      -0.65473579
C       -0.91132561       0.90220522       0.91563759
C       -0.01476271      -0.02253852       1.78660255
H       -0.67934791      -0.69751639       2.42135241
H        0.63392994       0.61504881       2.47327442
C        0.01484550      -1.77751727      -0.01636693
H        0.67870853      -2.42144646      -0.68295456
H       -0.62264859      -2.45592969       0.64226336
C        1.78714474       0.01002794       0.00389507
H        2.44202412       0.67113390       0.66197326
H        2.45385902      -0.65136977      -0.64189061
C        0.91606151      -0.90478549       0.90901405
