149
Properties=species:S:1:pos:R:3 pbc="F F F"
C        0.00000000       0.00000000       0.00000000
C        0.88156751       0.88156751      -0.88156751
C        0.30495261       1.89191352      -1.64664550
C        1.11433203       2.69227167      -2.45888473
C        2.50325739       2.49199754      -2.51516677
C        3.06408204       1.47113473      -1.73156882
C        2.25749981       0.66781584      -0.91823655
C        3.31708956       3.33061149      -3.39295175
N        2.92940046       4.29431214      -4.21143760
C        4.09337330       4.69774876      -4.81452235
C        4.33323227       5.66902345      -5.79564924
C        5.65058495       5.85867484      -6.25568959
C        6.69603059       5.09232648      -5.71800814
C        6.47335733       4.12032285      -4.72855355
C        5.15706314       3.96423543      -4.32263604
O        4.66875309       3.08430653      -3.40331861
N        5.82582726       6.82612068      -7.26933404
C        7.00251112       7.21998432      -7.87580370
O        8.12232112       6.79150535      -7.62117340
C        6.87594023       8.21660783      -8.98515027
C        7.82912432       8.11014251     -10.01673044
C        7.79387912       8.97690393     -11.10806480
Br       9.07673798       8.80848804     -12.48523102
C        6.81767418       9.96379682     -11.19225005
C        5.87638281      10.08915193     -10.16985166
C        5.90290984       9.22549595      -9.06534402
Cl       4.71288468       9.51224353      -7.84468826
H       -0.76786451       2.06435725      -1.62371375
H        0.65339944       3.47716975      -3.05748573
H        4.13641992       1.28594095      -1.75054606
H        2.71297761      -0.12012012      -0.32384106
H        3.49856683       6.24203834      -6.18231044
H        7.72041286       5.22223823      -6.05755051
H        7.27702343       3.52281292      -4.31701038
H        4.97910387       7.29658809      -7.56955595
H        8.59875521       7.34043569      -9.96429789
H        6.78438181      10.64283406     -12.04110453
H        5.12414146      10.87301128     -10.23776270
C       -0.88156751      -0.88156751      -0.88156751
C       -2.15715243      -1.23596706      -0.45039214
C       -2.95881291      -2.04991778      -1.25675775
C       -2.49585784      -2.51680743      -2.49775643
C       -1.20871133      -2.14295032      -2.91512393
C       -0.40338978      -1.32933853      -2.11082389
C       -3.35013655      -3.38562442      -3.30489184
N       -4.55675833      -3.85061218      -3.02777969
C       -4.85508318      -4.64563246      -4.10492877
C       -5.98153540      -5.43017973      -4.38618982
C       -6.00845850      -6.17634019      -5.58015070
C       -4.92553353      -6.11057105      -6.47026062
C       -3.79258003      -5.32294808      -6.20670562
C       -3.81150904      -4.62097861      -5.01144696
O       -2.83935287      -3.80894182      -4.50808355
N       -7.15349882      -6.97495647      -5.79282669
C       -7.44107561      -7.77856313      -6.87866041
O       -6.73628488      -7.92849186      -7.87022313
C       -8.70214835      -8.58023483      -6.79531514
C       -8.67964913      -9.82814809      -7.44820005
C       -9.79470276     -10.66443279      -7.41971230
Br      -9.73778489     -12.33866060      -8.29401155
C      -10.94910709     -10.27620935      -6.74840461
C      -10.98935395      -9.03617970      -6.10985276
C       -9.87550944      -8.18452059      -6.13371978
Cl     -10.06630722      -6.65770228      -5.34580696
H       -2.53694266      -0.89095639       0.50769257
H       -3.95360902      -2.32574777      -0.90869812
H       -0.81596886      -2.48677205      -3.87016601
H        0.59199919      -1.05663603      -2.45206171
H       -6.79818708      -5.45070315      -3.67402538
H       -4.92507634      -6.67734565      -7.39777961
H       -2.95268612      -5.27582275      -6.88833786
H       -7.85304777      -6.93233161      -5.05986853
H       -7.78111670     -10.14558854      -7.97678355
H      -11.82220657     -10.92409437      -6.72201946
H      -11.90171913      -8.73500637      -5.59818995
C       -0.88156751       0.88156751       0.88156751
C       -2.21145230       1.10014599       0.53191334
C       -3.01377273       1.91440869       1.33730701
C       -2.49745189       2.51683092       2.49613888
C       -1.15552202       2.27865892       2.83260465
C       -0.34943381       1.46518504       2.02893335
C       -3.35655041       3.38164027       3.30246212
N       -4.61529038       3.72817604       3.09168377
C       -4.89517635       4.58468493       4.12578312
C       -6.05800618       5.30124156       4.43865722
C       -6.05522003       6.13970066       5.57002870
C       -4.90555927       6.23124802       6.36955791
C       -3.73465758       5.51360380       6.07397235
C       -3.78677104       4.71543125       4.94173231
O       -2.79198642       3.94129513       4.42309669
N       -7.24294286       6.86311683       5.81522228
C       -7.51219706       7.72970186       6.85640022
O       -6.74838497       8.01501319       7.77160172
C       -8.83814725       8.42268222       6.81686886
C       -8.86938121       9.71854006       7.36807600
C      -10.04891772      10.46165637       7.36827376
Br     -10.06438522      12.20212123       8.10395058
C      -11.21513598       9.93171447       6.82687061
C      -11.20109225       8.64351988       6.29077428
C      -10.02183461       7.88465128       6.28726393
Cl     -10.14500990       6.28756566       5.63724090
H       -2.63358118       0.64868690      -0.36206159
H       -4.05177367       2.08333931       1.05294193
H       -0.72065827       2.72967659       3.72257206
H        0.68837374       1.29884087       2.30623142
H       -6.92570582       5.19991859       3.79729120
H       -4.88109055       6.87144429       7.24766676
H       -2.84399538       5.58774106       6.68511029
H       -7.99063963       6.70629706       5.14831122
H       -7.96245586      10.14669355       7.79433937
H      -12.13846297      10.50635332       6.82350412
H      -12.12181586       8.23187431       5.88122527
C        0.88156751      -0.88156751       0.88156751
C        0.74630838      -0.83080497       2.26639828
C        1.56072622      -1.63373075       3.07103146
C        2.51554830      -2.49244719       2.50242621
C        2.63131049      -2.53154151       1.10393358
C        1.81879221      -1.72918197       0.29557802
C        3.36722046      -3.30028542       3.37314693
N        3.40117693      -3.33936480       4.69460847
C        4.41272551      -4.22420384       4.96871505
C        4.94444796      -4.66582482       6.18763218
C        6.01733469      -5.57775737       6.16985733
C        6.52193917      -6.03981391       4.94461213
C        5.99495865      -5.61286743       3.71440765
C        4.95058243      -4.70431299       3.78903918
O        4.28144978      -4.11924386       2.75568460
N        6.53426635      -5.95979339       7.42722224
C        7.55917558      -6.84681653       7.69230703
O        8.20128610      -7.47520764       6.85850613
C        7.95104116      -6.99783987       9.12881729
C        9.31070629      -7.27804500       9.36724598
C        9.78827748      -7.42144478      10.66912559
Br      11.61844374      -7.78692024      10.96509306
C        8.92671675      -7.29371167      11.75329263
C        7.57468177      -7.03056763      11.53013700
C        7.08128009      -6.88714160      10.22532812
Cl       5.38135225      -6.60903444      10.07942977
H        0.01771552      -0.17157905       2.73091191
H        1.45077345      -1.58355000       4.15373146
H        3.36097669      -3.18394302       0.62798722
H        1.92944426      -1.77219250      -0.78493820
H        4.52373691      -4.28729658       7.11188212
H        7.34893497      -6.74422268       4.90704395
H        6.38692430      -5.96234731       2.76757512
H        6.07785877      -5.53852147       8.22886766
H        9.99722557      -7.37924320       8.52702001
H        9.29298342      -7.40398635      12.77135063
H        6.90524601      -6.94541360      12.38425584
