82
Properties=species:S:1:pos:R:3 pbc="F F F"
O       -0.44420667       4.49627568      -2.08999010
C        0.31065615       3.76326106      -1.46520091
C        1.50824385       3.14599852      -2.07186430
C        1.79900589       1.79900589      -1.79900589
C        2.92199825       1.18808330      -2.36901280
C        3.76349424       1.91293919      -3.20900056
C        3.48823427       3.25237440      -3.47675605
C        2.36686066       3.87387981      -2.91103157
H        0.10018222       3.50370101      -0.41469543
H        3.14712463       0.14167190      -2.16999407
H        4.63482609       1.43651829      -3.65293252
H        4.16090090       3.81008809      -4.12600261
C        2.20913267       5.27700107      -3.19382586
C        2.07703548       6.45211512      -3.43066608
Br       1.86344549       8.35217516      -3.81361668
O        0.78956105      -3.20620697      -3.72541318
C        0.17324683      -3.02921952      -2.68314543
C       -1.28498196      -2.79346709      -2.64765761
C       -1.79900589      -1.79900589      -1.79900589
C       -3.17557448      -1.54943127      -1.75408859
C       -4.04817183      -2.28889660      -2.54836556
C       -3.54780852      -3.28420664      -3.38534956
C       -2.17147094      -3.54254899      -3.43775211
H        0.70090989      -3.00389828      -1.71559026
H       -3.57932942      -0.77306872      -1.10639246
H       -5.11756160      -2.09268728      -2.51402802
H       -4.24249640      -3.86227851      -3.99221668
C       -1.76294324      -4.63595085      -4.28106551
C       -1.42080129      -5.55167490      -4.98734049
Br      -0.86758669      -7.03232325      -6.12932739
O       -4.80597123       0.03877917       1.29730871
C       -3.66359871       0.15522769       1.72029172
C       -3.10690607       1.44727720       2.17192340
C       -1.79900589       1.79900589       1.79900589
C       -1.25189276       3.02151233       2.20568925
C       -1.99934188       3.89824361       2.98784850
C       -3.29373882       3.55274418       3.37088172
C       -3.85100480       2.33118595       2.96958129
H       -2.98314061      -0.71165798       1.74709602
H       -0.24272622       3.30472395       1.91134042
H       -1.57376513       4.84886946       3.30164231
H       -3.86247231       4.24259675       3.99192254
C       -5.16732076       2.03808069       3.47455815
C       -6.26973536       1.79260504       3.89747627
Br      -8.05224655       1.39569168       4.58129910
O        4.45350218       0.48285742       2.17141435
C        3.30196104       0.10618106       2.34333814
C        2.93834731      -1.32060728       2.46715207
C        1.79900589      -1.79900589       1.79900589
C        1.43852846      -3.14830403       1.89226185
C        2.20520916      -4.02759351       2.65263132
C        3.33105062      -3.55932722       3.32698687
C        3.70067953      -2.21035445       3.24073807
H        2.47257222       0.83156030       2.37756674
H        0.56274446      -3.52761174       1.36843439
H        1.92515673      -5.07636668       2.72275349
H        3.91463443      -4.25537046       3.92698670
C        4.83827519      -1.81269378       4.02899063
C        5.79101156      -1.47965297       4.68915215
Br       7.33150569      -0.94115416       5.75657748
C       -0.00445707       0.01189536      -1.78238275
H       -0.66409135       0.67374010      -2.43557963
H        0.65740317      -0.63156657      -2.45157240
C       -0.90989263      -0.90692880      -0.91072765
C        0.90977584       0.90977584      -0.90977584
C       -0.00465871       1.77757030       0.00794375
H       -0.66225468       2.44313916      -0.64384735
H        0.64322798       2.43503045       0.67728295
C       -1.78241447       0.00034974      -0.00472694
H       -2.45427497      -0.65498947       0.64260836
H       -2.43311707       0.67328779      -0.65473579
C       -0.91132561       0.90220522       0.91563759
C       -0.01476271      -0.02253852       1.78660255
H       -0.67934791      -0.69751639       2.42135241
H        0.63392994       0.61504881       2.47327442
C        0.01484550      -1.77751727      -0.01636693
H        0.67870853      -2.42144646      -0.68295456
H       -0.62264859      -2.45592969       0.64226336
C        1.78714474       0.01002794       0.00389507
H        2.44202412       0.67113390       0.66197326
H        2.45385902      -0.65136977      -0.64189061
C        0.91606151      -0.90478549       0.90901405
