186
Properties=species:S:1:pos:R:3 pbc="F F F"
O        8.00958738       0.41665772      -0.24032473
C        8.32098255       1.40468326      -0.89569025
N        7.43085589       2.25632371      -1.54553876
N        6.09247816       2.02427609      -1.54720623
C        5.41072151       2.81463646      -2.31817294
C        3.94557847       2.69449001      -2.44595640
C        3.32768716       3.44956941      -3.44893078
C        1.94736009       3.36200737      -3.62311100
Cl       1.19133107       4.27509545      -4.87065311
C        1.17692878       2.54191619      -2.80286612
C        1.79592061       1.79592061      -1.79592061
C        3.18301462       1.86176363      -1.61448144
O        3.75483109       1.11075108      -0.62109597
C        9.77439482       1.85792547      -1.06193866
O        9.84082354       2.81257676      -2.12813623
C       10.85486751       2.66729424      -3.03316874
C       10.99908883       1.53681541      -3.86066226
C       10.14772278       0.30250736      -3.75072354
C       11.99572077       1.55036743      -4.85400260
C       12.79217123       2.67619166      -5.04803260
C       12.63139509       3.79970042      -4.24605775
C       11.65302416       3.81138340      -3.24031071
C       11.52622526       5.03435748      -2.37172692
H        7.83096808       2.99689570      -2.11801977
H        5.90214685       3.60207297      -2.92030678
H        3.91015292       4.09354792      -4.10131292
H        0.10137725       2.48315909      -2.94911123
H        4.73494069       1.18921138      -0.67597645
H       10.42088742       0.98811259      -1.20486181
H       10.07220584       2.36373486      -0.13692002
H       10.54321531      -0.36334404      -2.97790583
H       10.13403422      -0.25325679      -4.69267505
H        9.10757110       0.55688079      -3.52501767
H       12.13072210       0.68302062      -5.49708225
H       13.25509454       4.67500019      -4.40724893
H       12.15763735       4.92417541      -1.48411406
H       10.49210816       5.20281486      -2.05581255
H       11.83936846       5.93279456      -2.91413810
C       13.77469052       2.68423242      -6.10073920
C       14.59755043       2.69096656      -6.98238098
Br      15.92804530       2.70185509      -8.40792118
O       -7.48188944       1.37036791      -2.55504830
C       -7.91984824       0.32869218      -3.03019999
N       -7.20607921      -0.85945283      -3.16718631
N       -5.89709533      -0.95083911      -2.81602604
C       -5.32988208      -2.07142672      -3.14222211
C       -3.90873987      -2.33351394      -2.84377106
C       -3.33694986      -3.47720332      -3.41203417
C       -1.99356310      -3.76413647      -3.17477889
Cl      -1.28602467      -5.15968644      -3.89136852
C       -1.21945228      -2.93266063      -2.36959818
C       -1.79592061      -1.79592061      -1.79592061
C       -3.14064210      -1.48514776      -2.03346984
O       -3.66884714      -0.35864713      -1.45918388
C       -9.36397184       0.19079558      -3.52108269
O       -9.47137269      -1.00046125      -4.30970259
C      -10.15889588      -0.90885424      -5.48758036
C       -9.76073499      -0.08083433      -6.55499717
C       -8.62401468       0.90009132      -6.47703032
C      -10.46013182      -0.16692380      -7.77303519
C      -11.49396190      -1.08550769      -7.93692590
C      -11.86886726      -1.91859371      -6.88969229
C      -11.19684725      -1.84792173      -5.65994929
C      -11.64854558      -2.74508530      -4.53867879
H       -7.67003570      -1.62680579      -3.64904207
H       -5.88575660      -2.87027880      -3.66849120
H       -3.92209815      -4.13777336      -4.04514225
H       -0.17315282      -3.16819182      -2.19230294
H       -4.58689626      -0.22410035      -1.78913191
H       -9.66582117       1.09982722      -4.04786787
H      -10.00402018       0.07120311      -2.64004365
H       -8.96453979       1.84068613      -6.03392344
H       -8.22782814       1.12563858      -7.47126292
H       -7.79030363       0.49567837      -5.89484431
H      -10.17530434       0.47144021      -8.60696083
H      -12.67442800      -2.63488020      -7.02803546
H      -12.40198459      -2.22993525      -3.93400697
H      -10.81497116      -3.04128741      -3.89447700
H      -12.08675513      -3.66923656      -4.93030942
C      -12.16507698      -1.18771510      -9.20687007
C      -12.72713585      -1.27331380     -10.27044831
Br     -13.63593752      -1.41171966     -11.99016438
O        2.15093139       4.61844136       6.19905986
C        1.13298331       4.96935677       6.78498259
N       -0.16935119       4.67448475       6.38888241
N       -0.43017318       3.98706508       5.24672222
C       -1.68774867       3.92238328       4.93339895
C       -2.14612904       3.22133014       3.71856569
C       -3.48880403       3.37950633       3.35787699
C       -3.97068427       2.75127074       2.21052344
Cl      -5.61700093       2.96365414       1.75642456
C       -3.13437099       1.95941408       1.42792602
C       -1.79592061       1.79592061       1.79592061
C       -1.29132147       2.42960255       2.93833568
O        0.02784327       2.25103141       3.26349001
C        1.16853596       5.77719270       8.08560220
O       -0.13837725       6.30887173       8.33428756
C       -0.21604874       7.61738244       8.72189930
C        0.21078672       8.69094147       7.91641175
C        0.92761859       8.52303264       6.60553962
C       -0.04271823      10.00449151       8.35288107
C       -0.74360160      10.23970089       9.53309300
C       -1.18512861       9.17819663      10.31382802
C       -0.93763515       7.85751815       9.90956497
C       -1.40509398       6.73287168      10.79434400
H       -0.92457592       5.09394955       6.92735808
H       -2.46557066       4.40111024       5.55784569
H       -4.15756542       3.99470411       3.95274422
H       -3.52300166       1.47475042       0.53589550
H        0.25578789       2.82645640       4.02946002
H        1.95282986       6.53663459       8.03005708
H        1.41199616       5.08540512       8.89945176
H        1.99936389       8.38244037       6.77470063
H        0.80446833       9.40602100       5.97189982
H        0.52673072       7.67639006       6.03981023
H        0.28799898      10.84824694       7.75057700
H       -1.73449404       9.37141796      11.23143165
H       -0.61014129       6.45987225      11.49591327
H       -1.68774076       5.84957035      10.21342446
H       -2.29043924       7.02872385      11.36713801
C       -1.03142790      11.59174722       9.93648702
C       -1.27248243      12.72408602      10.27432952
Br      -1.66224721      14.55498210      10.82059225
O       -2.23273872      -5.48329915       5.41600940
C       -1.24634545      -5.79313790       6.07456360
N        0.04774429      -5.32490146       5.86007260
N        0.34368130      -4.48997476       4.83030442
C        1.61114311      -4.26315029       4.66923750
C        2.10817690      -3.38650928       3.59133868
C        3.48973039      -3.36598200       3.37047497
C        4.01137669      -2.56655548       2.35454630
Cl       5.70864734      -2.55827081       2.07016148
C        3.17463982      -1.78025194       1.56681933
C        1.79592061      -1.79592061       1.79592061
C        1.25293462      -2.60247577       2.80384931
O       -0.10408250      -2.59644659       2.99431405
C       -1.32208501      -6.74214833       7.27419562
O        0.00453582      -7.16326247       7.61373825
C        0.18983256      -8.49252482       7.87297310
C       -0.02911487      -9.50592186       6.91975950
C       -0.62370972      -9.26454378       5.56011961
C        0.32559387     -10.82785816       7.24663877
C        0.92527461     -11.12261319       8.46850769
C        1.16261464     -10.11684549       9.39769314
C        0.80977729      -8.79089222       9.10404876
C        1.05506726      -7.73183877      10.14540363
H        0.78701281      -5.72377074       6.43510000
H        2.37072593      -4.72801622       5.32578445
H        4.15993228      -3.97345263       3.97162885
H        3.59445109      -1.16103139       0.77816509
H       -0.34203604      -3.27484500       3.66731957
H       -2.00586561      -7.56602894       7.05369848
H       -1.72338534      -6.17499986       8.12124620
H       -1.71606889      -9.25334686       5.62049914
H       -0.33799543     -10.05323309       4.85821483
H       -0.26575718      -8.32315824       5.13206851
H        0.15509081     -11.62732335       6.52841080
H        1.63441363     -10.35579344      10.34713659
H        0.16735851      -7.62185313      10.77671517
H        1.29354750      -6.76449081       9.69269727
H        1.90550477      -7.99921278      10.78158356
C        1.32160917     -12.47538362       8.76266935
C        1.65353936     -13.60832885       9.00902975
Br       2.19024241     -15.44020547       9.40737367
C       -0.00445707       0.01189536      -1.78238275
H       -0.66409135       0.67374010      -2.43557963
H        0.65740317      -0.63156657      -2.45157240
C       -0.90989263      -0.90692880      -0.91072765
C        0.90977584       0.90977584      -0.90977584
C       -0.00465871       1.77757030       0.00794375
H       -0.66225468       2.44313916      -0.64384735
H        0.64322798       2.43503045       0.67728295
C       -1.78241447       0.00034974      -0.00472694
H       -2.45427497      -0.65498947       0.64260836
H       -2.43311707       0.67328779      -0.65473579
C       -0.91132561       0.90220522       0.91563759
C       -0.01476271      -0.02253852       1.78660255
H       -0.67934791      -0.69751639       2.42135241
H        0.63392994       0.61504881       2.47327442
C        0.01484550      -1.77751727      -0.01636693
H        0.67870853      -2.42144646      -0.68295456
H       -0.62264859      -2.45592969       0.64226336
C        1.78714474       0.01002794       0.00389507
H        2.44202412       0.67113390       0.66197326
H        2.45385902      -0.65136977      -0.64189061
C        0.91606151      -0.90478549       0.90901405
