149
Properties=species:S:1:pos:R:3 pbc="F F F"
C        0.00000000       0.00000000       0.00000000
C        0.88135258       0.88135258      -0.88135258
C        1.34914748       0.39247326      -2.09589333
C        2.14650757       1.20500944      -2.90181771
C        2.48539806       2.50367648      -2.49413671
Cl       3.43685791       3.42059310      -3.60993663
C        2.03348756       2.99539553      -1.25791094
C        1.21531207       2.16862835      -0.46250345
C        2.34719732       4.34452635      -0.68339236
O        1.55514539       4.82206365       0.12254214
N        3.53719079       4.92086725      -1.07908128
C        4.11077960       6.13150591      -0.63525868
C        3.57981714       6.91678061       0.39946660
C        4.20076379       8.10329747       0.82569865
C        5.36613128       8.44747922       0.15770393
O        6.16670573       9.52827686       0.37821894
C        7.16425375       9.40403495      -0.55461331
N        7.07121008       8.32120883      -1.30991794
C        5.92448960       7.71197482      -0.87058491
C        5.29676787       6.52957422      -1.28106300
C        8.24295963      10.39132250      -0.53514502
C        9.50431494       9.96689784      -1.00382736
C       10.59849727      10.83151799      -1.01381555
Br      12.27261900      10.22103801      -1.64278275
C       10.46437272      12.13900666      -0.56385832
C        9.22193671      12.58325887      -0.11144266
C        8.11350655      11.72172369      -0.09989030
Cl       6.61709873      12.41779367       0.42103026
H        1.09481487      -0.61152426      -2.42730066
H        2.49747391       0.81880028      -3.85714630
H        0.84345602       2.53512968       0.49419129
H        4.05783471       4.43751291      -1.80296437
H        2.66927507       6.62368306       0.91614190
H        3.79869589       8.70897013       1.62860237
H        5.73778754       5.95272714      -2.08563030
H        9.62662142       8.94408446      -1.36054478
H       11.31164504      12.82008571      -0.56787798
H        9.11867107      13.61279122       0.22584069
C       -0.88135258      -0.88135258      -0.88135258
C       -0.83612158      -2.26349547      -0.73789703
C       -1.65016817      -3.06396847      -1.53919807
C       -2.50483544      -2.48778665      -2.49058916
Cl      -3.49530714      -3.59084166      -3.38123884
C       -2.53895624      -1.09277770      -2.65506009
C       -1.72290028      -0.29667777      -1.82686582
C       -3.37440867      -0.34780928      -3.65289809
O       -3.67241981       0.81424154      -3.39648864
N       -3.70204316      -1.02522511      -4.80987104
C       -4.39940640      -0.54096623      -5.93717156
C       -4.79360131       0.79600178      -6.09953161
C       -5.46415587       1.23844040      -7.25264714
C       -5.71238758       0.27082355      -8.21434255
O       -6.32719226       0.43064881      -9.42022021
C       -6.32933538      -0.82737557      -9.96619107
N       -5.73724063      -1.74571685      -9.21937938
C       -5.35073197      -1.05802770      -8.09828967
C       -4.67904294      -1.48286961      -6.94549255
C       -6.86919540      -0.98394461     -11.31628713
C       -6.34344178      -2.03646350     -12.09513485
C       -6.78539108      -2.25953187     -13.39890786
Br      -6.04977209      -3.67574526     -14.41092241
C       -7.76335401      -1.44626308     -13.95762060
C       -8.30769994      -0.41011771     -13.19882059
C       -7.87177621      -0.17886199     -11.88448235
Cl      -8.67641211       1.09379419     -11.03124421
H       -0.18001600      -2.72615934      -0.00441594
H       -1.61794144      -4.14448368      -1.41099536
H       -1.74343429       0.78820818      -1.92916830
H       -3.44118151      -2.00442085      -4.85270962
H       -4.58098052       1.54068330      -5.33651901
H       -5.76406664       2.27067586      -7.38567288
H       -4.39372628      -2.52472613      -6.85769256
H       -5.57548542      -2.68402385     -11.67174140
H       -8.11400253      -1.61252642     -14.97307978
H       -9.08422591       0.21458769     -13.63598338
C       -0.88135258       0.88135258       0.88135258
C       -0.31747629       1.57176525       1.94827253
C       -1.12533110       2.38302134       2.74498227
C       -2.49849157       2.50078871       2.48393096
Cl      -3.37318318       3.57758746       3.51661699
C       -3.07792093       1.78852269       1.42035040
C       -2.24586003       0.98606088       0.61452296
C       -4.53123876       1.79296822       1.05090905
O       -4.82723256       1.53980221      -0.11236787
N       -5.42574355       2.03853769       2.07285809
C       -6.83594697       2.01974703       2.02185019
C       -7.57377724       1.62961656       0.89373734
C       -8.97886754       1.60175921       0.89773586
C       -9.58612823       1.98621451       2.08356383
O      -10.91969503       2.03647983       2.36058880
C      -10.97800648       2.49214430       3.65275124
N       -9.79579542       2.69411060       4.21243083
C       -8.90453047       2.38455866       3.21796021
C       -7.50454760       2.40269881       3.20015869
C      -12.29454838       2.59350571       4.28137305
C      -12.34449821       2.44674815       5.68379378
C      -13.55453954       2.51559710       6.37369417
Br     -13.57857286       2.30625682       8.25161008
C      -14.74220250       2.73715804       5.68787716
C      -14.71271052       2.90096393       4.30296379
C      -13.49957265       2.83621609       3.59933180
Cl     -13.59463235       3.12382136       1.89540842
H        0.74545634       1.49237312       2.16367450
H       -0.67300483       2.93024683       3.57016881
H       -2.67268970       0.43512877      -0.22342406
H       -5.03065018       2.29719152       2.97047029
H       -7.07714931       1.32322533      -0.02355842
H       -9.55257186       1.29458477       0.03190702
H       -6.97187480       2.71259342       4.09167676
H      -11.42160253       2.27246324       6.23718489
H      -15.69013419       2.79231647       6.21715807
H      -15.64401278       3.08928029       3.77232853
C        0.88135258      -0.88135258       0.88135258
C        2.21872212      -0.55052196       1.06827000
C        3.01752096      -1.35388943       1.88192433
C        2.48595441      -2.49314799       2.50410885
Cl       3.57134374      -3.37093408       3.52510982
C        1.14068688      -2.84455866       2.30154848
C        0.34230846      -2.01396866       1.49016674
C        0.45352504      -4.04874690       2.87284409
O       -0.76325877      -3.99762799       3.02029768
N        1.25097429      -5.14204885       3.14411618
C        0.85729678      -6.41721119       3.60303623
C       -0.47924469      -6.81412696       3.76224888
C       -0.82445154      -8.10490217       4.19791198
C        0.23772176      -8.95628925       4.46189556
O        0.18474645     -10.25266689       4.87935031
C        1.50012551     -10.62066322       5.00211328
N        2.36329337      -9.67662903       4.66241445
C        1.56910575      -8.61078946       4.32715412
C        1.89728140      -7.32248703       3.88763666
C        1.78904642     -12.00476747       5.37561325
C        3.00899796     -12.54703085       4.91901132
C        3.36891694     -13.86192091       5.21299296
Br       5.00863973     -14.55202047       4.57577956
C        2.52855458     -14.66705973       5.97162338
C        1.32524613     -14.14510823       6.44628388
C        0.95488867     -12.82188420       6.15834768
Cl      -0.52904882     -12.27880188       6.86410907
H        2.64623334       0.32981484       0.59417278
H        4.06015358      -1.08001785       2.03324904
H       -0.70702821      -2.26126392       1.33015870
H        2.25099237      -5.01400840       3.03331122
H       -1.29734688      -6.13317140       3.54099171
H       -1.85459126      -8.41818122       4.31547370
H        2.94184786      -7.05445643       3.77984069
H        3.68000314     -11.92862407       4.32262344
H        2.80070776     -15.69315688       6.20574408
H        0.67759691     -14.77528043       7.05274426
