170
Properties=species:S:1:pos:R:3 pbc="F F F"
C        1.79125660       1.79125660      -1.79125660
C        2.25905151       1.30237728      -3.00579735
C        3.05641159       2.11491347      -3.81172173
C        3.39530208       3.41358051      -3.40404074
Cl       4.34676193       4.33049712      -4.51984066
C        2.94339158       3.90529955      -2.16781496
C        2.12521610       3.07853237      -1.37240747
C        3.25710135       5.25443037      -1.59329638
O        2.46504941       5.73196767      -0.78736189
N        4.44709481       5.83077128      -1.98898531
C        5.02068363       7.04140994      -1.54516271
C        4.48972116       7.82668463      -0.51043742
C        5.11066782       9.01320149      -0.08420538
C        6.27603530       9.35738325      -0.75220009
O        7.07660975      10.43818088      -0.53168509
C        8.07415777      10.31393898      -1.46451734
N        7.98111410       9.23111286      -2.21982196
C        6.83439363       8.62187885      -1.78048893
C        6.20667189       7.43947825      -2.19096702
C        9.15286365      11.30122652      -1.44504904
C       10.41421897      10.87680186      -1.91373139
C       11.50840129      11.74142201      -1.92371958
Br      13.18252303      11.13094203      -2.55268678
C       11.37427674      13.04891068      -1.47376234
C       10.13184073      13.49316289      -1.02134669
C        9.02341058      12.63162771      -1.00979432
Cl       7.52700275      13.32769769      -0.48887376
H        2.00471889       0.29837977      -3.33720469
H        3.40737793       1.72870430      -4.76705032
H        1.75336005       3.44503370      -0.41571273
H        4.96773873       5.34741693      -2.71286840
H        3.57917909       7.53358708       0.00623788
H        4.70859992       9.61887416       0.71869835
H        6.64769156       6.86263116      -2.99553432
H       10.53652544       9.85398848      -2.27044880
H       12.22154906      13.72998974      -1.47778200
H       10.02857510      14.52269525      -0.68406333
C       -1.79125660      -1.79125660      -1.79125660
C       -2.39972516      -2.91789825      -1.24960273
C       -3.21151178      -3.71480829      -2.05672672
C       -3.41139113      -3.39398759      -3.40754460
Cl      -4.48005248      -4.43655484      -4.28049239
C       -2.78175194      -2.26881454      -3.96593962
C       -1.97794874      -1.46442662      -3.13378059
C       -2.87790293      -1.83023628      -5.39668889
O       -2.69665030      -0.64264743      -5.64508124
N       -3.11890851      -2.81889470      -6.32904818
C       -3.17429230      -2.69886947      -7.73409450
C       -2.87716491      -1.51803371      -8.43164459
C       -2.92058477      -1.45266589      -9.83482402
C       -3.27761320      -2.62574651     -10.48225893
O       -3.38212695      -2.84016094     -11.82418783
C       -3.77715177      -4.14947627     -11.92598605
N       -3.89148223      -4.77520439     -10.76536230
C       -3.58548774      -3.81054867      -9.84072499
C       -3.53330159      -3.86140673      -8.44240884
C       -3.91476971      -4.71804124     -13.26632827
C       -3.70310014      -6.10713452     -13.39451755
C       -3.79991068      -6.74032461     -14.63330760
Br      -3.50150375      -8.60181474     -14.76283334
C       -4.11444043      -6.01002837     -15.77248097
C       -4.34330941      -4.63827644     -15.66476446
C       -4.25109649      -3.99174672     -14.42198941
Cl      -4.62521440      -2.30203915     -14.41632066
H       -2.25609855      -3.18013159      -0.20407321
H       -3.69450308      -4.58764186      -1.62098761
H       -1.49058131      -0.57990848      -3.54361669
H       -3.31344533      -3.74654390      -5.96803483
H       -2.59064581      -0.61144134      -7.90444116
H       -2.68518643      -0.54561967     -10.37796963
H       -3.77225632      -4.79223313      -7.94136760
H       -3.45558777      -6.69493107     -12.51044389
H       -4.19204115      -6.49497280     -16.74230685
H       -4.60414553      -4.07348624     -16.55770190
C       -1.79125660       1.79125660       1.79125660
C       -2.19601613       1.33176290       3.03944712
C       -2.99363653       2.14460042       3.84480984
C       -3.39567274       3.41388417       3.40336642
Cl      -4.33987815       4.33702766       4.52019390
C       -3.00766855       3.87482266       2.13401488
C       -2.18834491       3.04892336       1.33888767
C       -3.39250200       5.18914020       1.52318591
O       -2.64869400       5.66442303       0.67126194
N       -4.58820471       5.73644993       1.94219675
C       -5.22261854       6.90796118       1.47667654
C       -4.75940682       7.67249660       0.39493980
C       -5.43956934       8.81886424      -0.05035890
C       -6.59208167       9.14546366       0.64807331
O       -7.44019654      10.18748250       0.41879669
C       -8.39790668      10.06233781       1.39236959
N       -8.23690070       9.01276308       2.18238514
C       -7.08475665       8.42939580       1.72260896
C       -6.39855398       7.28679192       2.15177126
C       -9.51297146      11.00845504       1.37771271
C      -10.73966127      10.55652355       1.90856739
C      -11.86450120      11.38068759       1.92835409
Br     -13.49058935      10.73402374       2.64153874
C      -11.79603159      12.67433270       1.42658547
C      -10.58839136      13.14599076       0.91196820
C       -9.44949573      12.32536499       0.88997189
Cl      -8.00018199      13.05512481       0.28826741
H       -1.89226706       0.35081415       3.39722214
H       -3.29498120       1.78212324       4.82602811
H       -1.86544746       3.39242524       0.35623378
H       -5.06372975       5.26210809       2.70218622
H       -3.85780949       7.39336723      -0.14464842
H       -5.08992172       9.40808900      -0.88923499
H       -6.78812388       6.72500439       2.99272877
H      -10.81041260       9.54408740       2.30646273
H      -12.66761296      13.32392939       1.43777845
H      -10.53620328      14.16517748       0.53395291
C        1.79125660      -1.79125660       1.79125660
C        2.61825345      -2.74321070       1.20576200
C        3.42848759      -3.53972377       2.01483543
C        3.40937347      -3.39375416       3.40979570
Cl       4.49880895      -4.40869004       4.28960072
C        2.55970743      -2.44829880       4.00849986
C        1.75937310      -1.63984893       3.17693391
C        2.41183832      -2.21120729       5.48178250
O        2.03221634      -1.10377496       5.84838767
N        2.67360372      -3.28545687       6.30779080
C        2.53468797      -3.36249503       7.71007327
C        1.98600809      -2.34072167       8.50011346
C        1.84343191      -2.47264616       9.89199661
C        2.28128087      -3.67247726      10.43186051
O        2.24653727      -4.06260310      11.73733535
C        2.80961865      -5.31304261      11.72995282
N        3.15714507      -5.74627819      10.52862567
C        2.83406203      -4.70484317       9.69785621
C        2.96533928      -4.56047178       8.31130611
C        2.85843673      -6.04645109      12.99425140
C        2.83409709      -7.45501239      12.91564273
C        2.86486173      -8.24238863      14.06629251
Br       2.82305624     -10.12574661      13.91734898
C        2.92600259      -7.64968693      15.32126025
C        2.96715187      -6.25893454      15.42026390
C        2.93948394      -5.45731478      14.26803390
Cl       3.06476642      -3.75089327      14.52791452
H        2.64592324      -2.86846639       0.12591373
H        4.08258314      -4.27345644       1.54709298
H        1.10254895      -0.89147384       3.62008370
H        3.04304290      -4.11987486       5.86510630
H        1.64058636      -1.41092761       8.05501433
H        1.41401914      -1.68973230      10.50502428
H        3.39638324      -5.37233160       7.73714220
H        2.78631555      -7.93606890      11.93857828
H        2.95031738      -8.25531155      16.22369187
H        3.03020667      -5.80006630      16.40506071
C       -0.00445707       0.01189536      -1.78238275
H       -0.66409135       0.67374010      -2.43557963
H        0.65740317      -0.63156657      -2.45157240
C       -0.90989263      -0.90692880      -0.91072765
C        0.90977584       0.90977584      -0.90977584
C       -0.00465871       1.77757030       0.00794375
H       -0.66225468       2.44313916      -0.64384735
H        0.64322798       2.43503045       0.67728295
C       -1.78241447       0.00034974      -0.00472694
H       -2.45427497      -0.65498947       0.64260836
H       -2.43311707       0.67328779      -0.65473579
C       -0.91132561       0.90220522       0.91563759
C       -0.01476271      -0.02253852       1.78660255
H       -0.67934791      -0.69751639       2.42135241
H        0.63392994       0.61504881       2.47327442
C        0.01484550      -1.77751727      -0.01636693
H        0.67870853      -2.42144646      -0.68295456
H       -0.62264859      -2.45592969       0.64226336
C        1.78714474       0.01002794       0.00389507
H        2.44202412       0.67113390       0.66197326
H        2.45385902      -0.65136977      -0.64189061
C        0.91606151      -0.90478549       0.90901405
