133
Properties=species:S:1:pos:R:3 pbc="F F F"
C        0.00000000       0.00000000       0.00000000
C        0.88246945       0.88246945      -0.88246945
C        0.39082992       2.09414064      -1.35854168
C        1.20160755       2.90039295      -2.16437065
C        2.50701438       2.51246436      -2.50398879
C        2.97326558       1.28187452      -2.01502941
C        2.17084360       0.46937923      -1.20734105
C        3.36559670       3.37509691      -3.34864995
C        3.12220492       4.85879527      -3.38522479
N        4.29217826       2.78926089      -4.13569544
N        4.88447685       3.65483282      -4.95833639
C        5.84550067       3.18891675      -5.70040423
C        6.31095469       1.74386117      -5.68492371
C        6.52006205       4.14746118      -6.63100731
C        5.77984906       5.23946051      -7.10647844
C        6.35946070       6.16958015      -7.97068863
C        7.68916074       6.01122290      -8.35352799
Br       8.48441308       7.26927040      -9.52082088
C        8.44309422       4.93826258      -7.87555270
C        7.85930887       4.00709701      -7.00971213
H       -0.61482253       2.42354945      -1.11995730
H        0.79965103       3.83402544      -2.54690168
H        3.98168474       0.96063491      -2.26773595
H        2.56763925      -0.47366582      -0.84720364
H        4.02902235       5.43894405      -3.58814116
H        2.75654864       5.22242180      -2.41810682
H        2.37674781       5.10581639      -4.14880118
H        6.79936926       1.52777389      -4.73028853
H        7.00672974       1.52152717      -6.49648328
H        5.45250396       1.07683562      -5.81244514
H        4.74534612       5.35557479      -6.78322111
H        5.76503031       7.00664975      -8.32305820
H        9.48504609       4.82303911      -8.15850914
H        8.46396739       3.19699133      -6.61530786
C       -0.88246945      -0.88246945      -0.88246945
C       -2.19842698      -0.50823816      -1.13684711
C       -3.00291267      -1.31702689      -1.94643159
C       -2.50896281      -2.50307224      -2.51143248
C       -1.18001171      -2.85858582      -2.23157198
C       -0.36718574      -2.05579155      -1.42458659
C       -3.36168050      -3.35049215      -3.37717091
C       -4.51180184      -2.73155081      -4.12287233
N       -3.13413432      -4.68044563      -3.40255464
N       -4.06347715      -5.34453913      -4.08962978
C       -3.88090621      -6.62456018      -4.22935525
C       -2.69757940      -7.38467516      -3.65748500
C       -4.91616543      -7.38548904      -4.99687608
C       -6.22981277      -6.89481306      -5.00116219
C       -7.23493262      -7.55886186      -5.70593500
C       -6.92191706      -8.71444361      -6.41755097
Br      -8.27665430      -9.61855175      -7.37929832
C       -5.61557702      -9.20563222      -6.43570026
C       -4.61008283      -8.53816579      -5.72786939
H       -2.61494597       0.39934342      -0.71308168
H       -4.03441269      -1.02525214      -2.12091332
H       -0.77718374      -3.77515071      -2.65772115
H        0.65521165      -2.36325029      -1.23313843
H       -4.74724219      -3.25028663      -5.05857874
H       -4.28370937      -1.69972208      -4.41364581
H       -5.41171483      -2.72113613      -3.49851442
H       -1.78507153      -7.08904154      -4.18331861
H       -2.81834611      -8.46672179      -3.73967229
H       -2.59182890      -7.15812230      -2.59183353
H       -6.45242102      -5.98020377      -4.45151724
H       -8.24328979      -7.15727142      -5.69417705
H       -5.36587815     -10.09618822      -7.00452797
H       -3.59101619      -8.90757070      -5.77767969
C       -0.88246945       0.88246945       0.88246945
C       -2.20034120       0.51150358       1.13166747
C       -3.00482937       1.32027666       1.94126511
C       -2.50898842       2.50306474       2.51141437
C       -1.17810228       2.85535118       2.23671605
C       -0.36526354       2.05253894       1.42976141
C       -3.36176231       3.35044484       3.37713641
C       -4.51605707       2.73275807       4.11740984
N       -3.13022517       4.67960946       3.40729997
N       -4.05963607       5.34444704       4.09356295
C       -3.87357768       6.62346778       4.23777618
C       -2.68617936       7.38169280       3.67186741
C       -4.90885456       7.38521877       5.00445722
C       -6.22400469       6.89856775       5.00321558
C       -7.22924637       7.56353914       5.70694397
C       -6.91488145       8.71597064       6.42305954
Br      -8.26979143       9.62128598       7.38342696
C       -5.60710587       9.20308805       6.44671558
C       -4.60149091       8.53470728       5.73991981
H       -2.61833326      -0.39349342       0.70384438
H       -4.03774856       1.03113771       2.11169187
H       -0.77378092       3.76936614       2.66690854
H        0.65865322       2.35744161       1.24238867
H       -4.75278037       3.24934769       5.05397951
H       -4.29201801       1.69934862       4.40571062
H       -5.41407643       2.72701780       3.49027115
H       -1.77619954       7.08165057       4.19958156
H       -2.80388509       8.46384849       3.75700661
H       -2.57785133       7.15807937       2.60585403
H       -6.44772284       5.98633305       4.45008614
H       -8.23878724       7.16508455       5.69086646
H       -5.35642986      10.09112780       7.01903668
H       -3.58145603       8.90082728       5.79398328
C        0.88246945      -0.88246945       0.88246945
C        0.44041163      -2.14837201       1.25472860
C        1.25119746      -2.95433153       2.06084216
C        2.50753329      -2.51225500       2.50367924
C        2.92387174      -1.22819175       2.11810602
C        2.12112966      -0.41540431       1.31102992
C        3.36718817      -3.37400191       3.34815348
C        3.21533845      -4.86882998       3.28205655
N        4.20738980      -2.78502610       4.22471869
N        4.80322438      -3.66399485       5.03042684
C        5.68788809      -3.18965604       5.85727751
C        6.06215517      -1.72157917       5.95600523
C        6.36514290      -4.16316504       6.77022260
C        5.66798062      -5.32442854       7.13337885
C        6.25276583      -6.27105302       7.97591062
C        7.54511974      -6.05897331       8.44981859
Br       8.34742259      -7.33857974       9.58850204
C        8.25728995      -4.91571443       8.08390511
C        7.66837698      -3.96819152       7.23954950
H       -0.52688294      -2.52082368       0.93474349
H        0.88660670      -3.93209440       2.36187704
H        3.89360265      -0.86459953       2.45185342
H        2.47867208       0.57003208       1.03253707
H        4.14314882      -5.40616131       3.50679743
H        2.93068928      -5.19214499       2.27424298
H        2.44314905      -5.20656447       3.98165186
H        6.59142992      -1.41784150       5.04816026
H        6.69369491      -1.50987844       6.82116684
H        5.15765334      -1.11551234       6.06861906
H        4.66358493      -5.48077575       6.73978135
H        5.69214786      -7.16205023       8.24054016
H        9.27153444      -4.75729583       8.43776407
H        8.24334540      -3.10082772       6.93209346
