154
Properties=species:S:1:pos:R:3 pbc="F F F"
C        1.79237347       1.79237347      -1.79237347
C        1.30073395       3.00404467      -2.26844570
C        2.11151158       3.81029697      -3.07427467
C        3.41691840       3.42236839      -3.41389282
C        3.88316961       2.19177854      -2.92493344
C        3.08074763       1.37928326      -2.11724507
C        4.27550072       4.28500094      -4.25855397
C        4.03210895       5.76869930      -4.29512881
N        5.20208229       3.69916491      -5.04559947
N        5.79438088       4.56473684      -5.86824042
C        6.75540469       4.09882077      -6.61030825
C        7.22085871       2.65376519      -6.59482773
C        7.42996608       5.05736520      -7.54091134
C        6.68975308       6.14936454      -8.01638247
C        7.26936472       7.07948417      -8.88059266
C        8.59906476       6.92112692      -9.26343202
Br       9.39431711       8.17917443     -10.43072491
C        9.35299825       5.84816660      -8.78545672
C        8.76921289       4.91700103      -7.91961615
H        0.29508149       3.33345348      -2.02986133
H        1.70955505       4.74392946      -3.45680570
H        4.89158877       1.87053893      -3.17763997
H        3.47754327       0.43623820      -1.75710766
H        4.93892637       6.34884808      -4.49804519
H        3.66645266       6.13232582      -3.32801084
H        3.28665184       6.01572041      -5.05870521
H        7.70927328       2.43767792      -5.64019255
H        7.91663376       2.43143120      -7.40638730
H        6.36240799       1.98673965      -6.72234917
H        5.65525015       6.26547882      -7.69312514
H        6.67493433       7.91655377      -9.23296223
H       10.39495011       5.73294313      -9.06841317
H        9.37387142       4.10689535      -7.52521189
C       -1.79237347      -1.79237347      -1.79237347
C       -3.11038798      -1.42165379      -2.04118255
C       -3.91487634      -2.23042569      -2.85078119
C       -3.41889437      -3.41296820      -3.42131703
C       -2.08786390      -3.76501134      -3.14700635
C       -1.27502421      -2.96219774      -2.34005401
C       -4.27167248      -4.26034532      -4.28703783
C       -5.42627994      -3.64275399      -5.02690313
N       -4.03983622      -5.58944959      -4.31756085
N       -4.96925204      -6.25434318      -5.00376291
C       -4.78293234      -7.53328779      -5.14831358
C       -3.59522913      -8.29136959      -4.58285292
C       -5.81821034      -8.29510065      -5.91493163
C       -7.13347218      -7.80875287      -5.91327504
C       -8.13872277      -8.47379370      -6.61692508
C       -7.82425743      -9.62598783      -7.33337845
Br      -9.17918007     -10.53139404      -8.29364233
C       -6.51637520     -10.11279853      -7.35744784
C       -5.51075141      -9.44434894      -6.65072973
H       -3.52848988      -0.51685164      -1.61305478
H       -4.94790132      -1.94148543      -3.02090347
H       -1.68343117      -4.67883405      -3.57750245
H       -0.25099413      -3.26690770      -2.15298731
H       -5.66309998      -4.15918243      -5.96353723
H       -5.20254527      -2.60922660      -5.31501746
H       -6.32415612      -3.63736498      -4.39955636
H       -2.68544001      -7.99099625      -5.11070749
H       -3.71270527      -9.37353273      -4.66821426
H       -3.48670706      -8.06797670      -3.51681304
H       -7.35727299      -6.89669711      -5.35988399
H       -9.14835165      -8.07557537      -6.60052331
H       -6.26562653     -11.00064870      -7.93003118
H       -4.49064472      -9.81022152      -6.70511242
C       -1.79237347       1.79237347       1.79237347
C       -3.11221232       1.42483336       2.03617863
C       -3.91670318       2.23359011       2.84578994
C       -3.41891910       3.41296108       3.42129942
C       -2.08604398       3.76186165       3.15197596
C       -1.27319209       2.95903053       2.34505334
C       -4.27175162       4.26029994       4.28700407
C       -5.43037336       3.64395178       5.02161191
N       -4.03607401       5.58861394       4.32215872
N       -4.96555076       6.25422974       5.00757764
C       -4.77587628       7.53218213       5.15647530
C       -3.58426099       8.28840507       4.59678559
C       -5.81116614       8.29479260       5.92228388
C       -7.12785104       7.81235859       5.91529046
C       -8.13321326       8.47829512       6.61793317
C       -7.81746723       9.62742495       7.33873153
Br      -9.17254878      10.53400326       8.29766440
C       -6.50822704      10.11027744       7.36811709
C       -5.50249261       9.44094016       6.66239731
H       -3.53171770       0.52254759       1.60413101
H       -4.95107935       1.94721556       3.01199531
H       -1.68018799       4.67320148       3.58637821
H       -0.24771376       3.26125150       2.16192388
H       -5.66844332       4.15830638       5.95906994
H       -5.21055511       2.60891649       5.30731773
H       -6.32639521       3.64308521       4.39159704
H       -2.67693597       7.98377109       5.12643668
H       -3.69878642       9.37065478       4.68501106
H       -3.47323636       8.06784734       3.53041311
H       -7.35270664       6.90261322       5.35853424
H       -9.14396326       8.08312610       6.59736096
H       -6.25655245      10.99568063       7.94407333
H       -4.48147338       9.80362018       6.72088509
C        1.79237347      -1.79237347       1.79237347
C        1.35609854      -3.06344482       2.15368096
C        2.16688318      -3.86937447       2.95982557
C        3.41749233      -3.42213403       3.41355324
C        3.82801722      -2.13298150       3.03888286
C        3.02523822      -1.32016659       2.23187115
C        4.27725771      -4.28378319       4.25801473
C        4.13545397      -5.77909524       4.18138785
N        5.10803206      -3.69510012       5.14371449
N        5.70434660      -4.57540747       5.94760407
C        6.58063653      -4.10075261       6.78314457
C        6.94481201      -2.63097878       6.89366085
C        7.25829069      -5.07576578       7.69418616
C        6.56630676      -6.24377456       8.04541877
C        7.15177227      -7.19204241       8.88562688
C        8.43967911      -6.97475897       9.36918563
Br       9.24290244      -8.25650993      10.50480407
C        9.14680381      -5.82464039       9.01517737
C        8.55721659      -4.87548881       8.17312468
H        0.39328548      -3.44000595       1.82510486
H        1.80667363      -4.85136454       3.25225204
H        4.79323554      -1.76535242       3.38117971
H        3.37820625      -0.33069341       1.96198949
H        5.06524652      -6.31191932       4.40865379
H        3.85933907      -6.09773266       3.16971760
H        3.36099702      -6.12625303       4.87382741
H        7.47791427      -2.31802945       5.99120003
H        7.56943320      -2.42081578       7.76420329
H        6.03572826      -2.03144345       7.00432509
H        5.56547434      -6.40400369       7.64437607
H        6.59521807      -8.08828927       9.14094299
H       10.15772532      -5.66202133       9.37655976
H        9.12854647      -4.00250711       7.87492508
C       -0.00445707       0.01189536      -1.78238275
H       -0.66409135       0.67374010      -2.43557963
H        0.65740317      -0.63156657      -2.45157240
C       -0.90989263      -0.90692880      -0.91072765
C        0.90977584       0.90977584      -0.90977584
C       -0.00465871       1.77757030       0.00794375
H       -0.66225468       2.44313916      -0.64384735
H        0.64322798       2.43503045       0.67728295
C       -1.78241447       0.00034974      -0.00472694
H       -2.45427497      -0.65498947       0.64260836
H       -2.43311707       0.67328779      -0.65473579
C       -0.91132561       0.90220522       0.91563759
C       -0.01476271      -0.02253852       1.78660255
H       -0.67934791      -0.69751639       2.42135241
H        0.63392994       0.61504881       2.47327442
C        0.01484550      -1.77751727      -0.01636693
H        0.67870853      -2.42144646      -0.68295456
H       -0.62264859      -2.45592969       0.64226336
C        1.78714474       0.01002794       0.00389507
H        2.44202412       0.67113390       0.66197326
H        2.45385902      -0.65136977      -0.64189061
C        0.91606151      -0.90478549       0.90901405
