125
Properties=species:S:1:pos:R:3 pbc="F F F"
C        0.00000000       0.00000000       0.00000000
C        0.88192872       0.88192872      -0.88192872
C        0.47553780       1.18480287      -2.18239468
C        1.28011041       1.99104826      -2.99032352
C        2.48928572       2.48182739      -2.48790930
C        2.88742566       2.19368834      -1.17781348
C        2.08231638       1.38283225      -0.37560045
S        3.48789962       3.55134209      -3.49308085
O        2.62898774       4.16005392      -4.48519408
O        4.33008051       4.34431106      -2.62728035
N        4.45903632       2.46301894      -4.31940816
C        5.68377004       1.97949096      -3.66995164
C        6.39050848       0.92930008      -4.53159908
C        5.57891082      -0.32043449      -4.72583404
C        5.21174042      -1.26660978      -3.78595293
C        4.45508361      -2.33417722      -4.35721510
C        4.28579509      -2.15540181      -5.70618547
S        5.00213119      -0.73700340      -6.28862346
H       -0.46571738       0.80499997      -2.57223038
H        0.95785462       2.23568735      -4.00030404
H        3.81345184       2.59890091      -0.77588765
H        2.39225163       1.15580690       0.64151677
H        4.45930798       2.61934260      -5.32698264
H        5.44706416       1.56341305      -2.68532420
H        6.36909647       2.82331431      -3.53276340
H        7.33589934       0.65389192      -4.04707300
H        6.65729062       1.37300338      -5.49925385
H        5.47246313      -1.20262502      -2.73612608
H        4.06892232      -3.17956248      -3.80122578
C        3.57361187      -3.08060724      -6.54903183
C        2.97715843      -3.85546679      -7.25491565
Br       2.01274367      -5.10834914      -8.39627010
C       -0.88192872      -0.88192872      -0.88192872
C       -2.01947687      -1.48273257      -0.34052592
C       -2.82728755      -2.28919402      -1.14500061
C       -2.48303439      -2.49074220      -2.48524583
C       -1.35311508      -1.87311228      -3.03270013
C       -0.54557283      -1.07200179      -2.22317446
S       -3.53714282      -3.47076547      -3.52441428
O       -4.86034085      -3.47401866      -2.93987622
O       -3.31455573      -3.08748258      -4.89963359
N       -2.92384166      -5.01510760      -3.30251417
C       -1.77756923      -5.44011263      -4.11553079
C       -1.30037345      -6.83827990      -3.71275430
C       -0.77623155      -6.90224941      -2.30582941
C        0.35690226      -6.30947757      -1.77850825
C        0.53956736      -6.62062570      -0.39706315
C       -0.45887258      -7.44042015       0.06271399
S       -1.60492893      -7.82812315      -1.12069918
H       -2.28831886      -1.32419226       0.70099815
H       -3.71977571      -2.74869277      -0.72537753
H       -1.10047882      -2.00531728      -4.08244430
H        0.33435104      -0.59408936      -2.64680343
H       -3.64442110      -5.69626242      -3.06494970
H       -0.95986929      -4.71877248      -4.01715965
H       -2.08258775      -5.47526735      -5.16731908
H       -0.49679330      -7.14632962      -4.39374135
H       -2.11802278      -7.55629987      -3.85522520
H        1.02875963      -5.68226517      -2.35245865
H        1.36189218      -6.26229126       0.20981345
C       -0.52866966      -7.92889891       1.41553211
C       -0.58712472      -8.33799987       2.54851729
Br      -0.68164160      -8.99948153       4.38045849
C       -0.88192872       0.88192872       0.88192872
C       -2.09434344       1.36308704       0.38530486
C       -2.90228229       2.16931217       1.18988773
C       -2.48344579       2.49086499       2.48471162
C       -1.27698542       1.99288723       2.98905484
C       -0.47004636       1.19160028       2.17910244
S       -3.53317119       3.47016807       3.52898330
O       -4.88970911       3.34100096       3.04352567
O       -3.19041657       3.20408545       4.90716988
N       -3.05048759       5.03230086       3.15867497
C       -1.88568563       5.59223278       3.85529424
C       -1.54006007       6.98650121       3.32484636
C       -1.11868681       6.98323634       1.88238722
C        0.01620431       6.43191296       1.31537492
C        0.08152029       6.65327468      -0.09363291
C       -1.00289041       7.36772456      -0.53403624
S       -2.09116422       7.76191797       0.70066906
H       -2.42099922       1.11120944      -0.62069568
H       -3.85229420       2.53537435       0.80617745
H       -0.96397830       2.21805919       4.00620291
H        0.46907709       0.80665489       2.56896395
H       -3.83323468       5.64384998       2.92854856
H       -1.02617681       4.92281748       3.74680711
H       -2.12035284       5.68313155       4.92168979
H       -0.71668923       7.39717831       3.92299672
H       -2.39628310       7.65582898       3.47743577
H        0.76937595       5.89523689       1.88010324
H        0.88466784       6.30832986      -0.73307640
C       -1.19975738       7.75048372      -1.90820465
C       -1.36463347       8.07104452      -3.05907069
Br      -1.63122415       8.58936422      -4.91992375
C        0.88192872      -0.88192872       0.88192872
C        0.33107457      -1.51370490       1.99795588
C        1.13542099      -2.32058673       2.80547447
C        2.48796948      -2.48181670       2.48923623
C        3.03559091      -1.86363913       1.35969746
C        2.22879045      -1.05359803       0.55836060
S        3.50021261      -3.55007508       3.48203488
O        2.62995102      -4.48965289       4.15463183
O        4.62437573      -3.98951087       2.68778530
N        4.06764633      -2.50774647       4.66607062
C        5.25762745      -1.69742749       4.37815771
C        5.57232631      -0.74440645       5.53467488
C        4.49748324       0.27986612       5.76669325
C        4.10783451       1.32379465       4.94704371
C        3.05929598       2.10359137       5.52241688
C        2.70266243       1.62180160       6.75571791
S        3.58797415       0.25721116       7.22298826
H       -0.72110651      -1.39008797       2.24253152
H        0.70317567      -2.82144893       3.66922140
H        4.08046098      -2.01181667       1.09596274
H        2.65405626      -0.57032163      -0.31783614
H        3.92804434      -2.86787533       5.60971355
H        5.11156548      -1.13237162       3.45186430
H        6.11665498      -2.36426503       4.24425417
H        6.50837173      -0.21662225       5.31187029
H        5.75600429      -1.32738958       6.44615397
H        4.55184891       1.52520290       3.97931817
H        2.60664748       2.96733596       5.05127410
C        1.68010689       2.21560326       7.57753282
C        0.82371663       2.71291215       8.26580282
Br      -0.56099399       3.51701857       9.37867719
