146
Properties=species:S:1:pos:R:3 pbc="F F F"
C        1.79183274       1.79183274      -1.79183274
C        1.38544182       2.09470690      -3.09229870
C        2.19001443       2.90095228      -3.90022754
C        3.39918974       3.39173141      -3.39781332
C        3.79732969       3.10359237      -2.08771751
C        2.99222040       2.29273628      -1.28550447
S        4.39780365       4.46124611      -4.40298488
O        3.53889176       5.06995794      -5.39509810
O        5.23998453       5.25421508      -3.53718437
N        5.36894035       3.37292296      -5.22931218
C        6.59367407       2.88939499      -4.57985566
C        7.30041250       1.83920410      -5.44150311
C        6.48881485       0.58946953      -5.63573806
C        6.12164444      -0.35670575      -4.69585695
C        5.36498763      -1.42427320      -5.26711913
C        5.19569911      -1.24549779      -6.61608949
S        5.91203521       0.17290063      -7.19852749
H        0.44418665       1.71490400      -3.48213441
H        1.86775864       3.14559137      -4.91020806
H        4.72335586       3.50880494      -1.68579168
H        3.30215565       2.06571092      -0.26838725
H        5.36921200       3.52924662      -6.23688666
H        6.35696818       2.47331708      -3.59522822
H        7.27900049       3.73321833      -4.44266743
H        8.24580337       1.56379595      -4.95697703
H        7.56719465       2.28290741      -6.40915787
H        6.38236715      -0.29272099      -3.64603010
H        4.97882634      -2.26965845      -4.71112981
C        4.48351590      -2.17070322      -7.45893585
C        3.88706246      -2.94556277      -8.16481968
Br       2.92264769      -4.19844512      -9.30617412
C       -1.79183274      -1.79183274      -1.79183274
C       -3.17048916      -1.82526865      -1.57668961
C       -3.97867340      -2.63063395      -2.38188691
C       -3.39523343      -3.40062152      -3.39287953
C       -2.01549438      -3.35246766      -3.62067753
C       -1.21087381      -2.54990773      -2.80967961
S       -4.42562236      -4.38323910      -4.45317318
O       -5.75780096      -3.82011206      -4.42603479
O       -3.72298755      -4.61395177      -5.69444467
N       -4.51461500      -5.83571397      -3.62084652
C       -3.43960144      -6.81862252      -3.80470076
C       -3.64269468      -8.03775830      -2.90066673
C       -3.57011842      -7.70743443      -1.43646958
C       -2.47936481      -7.28115408      -0.70027675
C       -2.79615348      -7.09048258       0.67880250
C       -4.11130521      -7.38579438       0.93080878
S       -4.96453512      -7.87106489      -0.44786332
H       -3.62434700      -1.22485043      -0.79202762
H       -5.05454374      -2.64822183      -2.22079250
H       -1.56406616      -3.92826162      -4.42562469
H       -0.13825738      -2.51412837      -2.98386808
H       -5.47238710      -6.16365278      -3.49930541
H       -2.46874290      -6.35509806      -3.60167253
H       -3.44757826      -7.16221834      -4.84508965
H       -2.86364944      -8.77724031      -3.12568660
H       -4.60067490      -8.51479933      -3.14378569
H       -1.49663332      -7.11393343      -1.12510950
H       -2.09033881      -6.76138385       1.43142496
C       -4.71136665      -7.29720695       2.23682506
C       -5.21391810      -7.22301498       3.33061370
Br      -6.02650129      -7.10305283       5.09917742
C       -1.79183274       1.79183274       1.79183274
C       -3.15603602       1.89933459       1.51707681
C       -3.96420649       2.70483933       2.32214844
C       -3.39488241       3.40071545       3.39313662
C       -2.03084892       3.27791013       3.67988051
C       -1.22583779       2.47563096       2.86899240
S       -4.42880630       4.38209638       4.45113196
O       -5.78209499       3.88370665       4.33814617
O       -3.77542053       4.52395610       5.73200736
N       -4.41373255       5.87289761       3.68454533
C       -3.30563878       6.79521822       3.96206772
C       -3.41150135       8.06171470       3.10790367
C       -3.28532145       7.79413926       1.63456172
C       -2.18145745       7.35061639       0.92872180
C       -2.44156687       7.23681724      -0.47055055
C       -3.72896710       7.60432194      -0.76699823
S       -4.62323528       8.06687556       0.59335248
H       -3.59906142       1.35649072       0.68567291
H       -5.02949626       2.77994043       2.11412138
H       -1.59229811       3.79538829       4.53026607
H       -0.16522108       2.38194346       3.08908929
H       -5.34914940       6.25040414       3.53579175
H       -2.34803457       6.29630672       3.78117219
H       -3.34692790       7.09195968       5.01599868
H       -2.61156356       8.75312969       3.40188309
H       -4.35752619       8.57171961       3.33001412
H       -1.22814265       7.11876533       1.38876828
H       -1.71672176       6.90902117      -1.20544523
C       -4.27061132       7.60238347      -2.10124626
C       -4.72423834       7.60076000      -3.21867898
Br      -5.45771488       7.59813499      -5.02547318
C        1.79183274      -1.79183274       1.79183274
C        2.16787215      -1.34504030       3.05953497
C        2.97389191      -2.14973750       3.86756484
C        3.40082101      -3.39417051       3.39374296
C        3.00815921      -3.85002744       2.13045291
C        2.20666081      -3.03975088       1.32404946
S        4.38004469      -4.44264270       4.43934725
O        4.14020398      -4.05229763       5.81144620
O        4.22229381      -5.80980672       3.99928345
N        5.94158070      -3.95053934       4.07905546
C        6.61251344      -4.53778515       2.91262613
C        7.98857362      -3.90475889       2.68778721
C        7.91928892      -2.44132223       2.35341129
C        7.40161365      -1.83753609       1.22164591
C        7.53708798      -0.41656513       1.25418045
C        8.15668793      -0.00385532       2.40574756
S        8.56273370      -1.27920791       3.44152172
H        1.83405731      -0.37839073       3.42877701
H        3.25796994      -1.80570371       4.85988443
H        3.31526229      -4.83022922       1.77246096
H        1.90351252      -3.39172086       0.34102044
H        6.48984441      -3.73438350       4.91111738
H        5.98978527      -4.41519059       2.02053762
H        6.75644876      -5.60958653       3.08885096
H        8.48433175      -4.42431527       1.85792932
H        8.61419320      -4.07108769       3.57397902
H        6.94730489      -2.38445810       0.40391327
H        7.20075254       0.25069113       0.47023629
C        8.43958954       1.37543905       2.70759804
C        8.67651964       2.53059809       2.96039782
Br       9.05961557       4.39839255       3.36915368
C       -0.00445707       0.01189536      -1.78238275
H       -0.66409135       0.67374010      -2.43557963
H        0.65740317      -0.63156657      -2.45157240
C       -0.90989263      -0.90692880      -0.91072765
C        0.90977584       0.90977584      -0.90977584
C       -0.00465871       1.77757030       0.00794375
H       -0.66225468       2.44313916      -0.64384735
H        0.64322798       2.43503045       0.67728295
C       -1.78241447       0.00034974      -0.00472694
H       -2.45427497      -0.65498947       0.64260836
H       -2.43311707       0.67328779      -0.65473579
C       -0.91132561       0.90220522       0.91563759
C       -0.01476271      -0.02253852       1.78660255
H       -0.67934791      -0.69751639       2.42135241
H        0.63392994       0.61504881       2.47327442
C        0.01484550      -1.77751727      -0.01636693
H        0.67870853      -2.42144646      -0.68295456
H       -0.62264859      -2.45592969       0.64226336
C        1.78714474       0.01002794       0.00389507
H        2.44202412       0.67113390       0.66197326
H        2.45385902      -0.65136977      -0.64189061
C        0.91606151      -0.90478549       0.90901405
