97
Properties=species:S:1:pos:R:3 pbc="F F F"
C        0.00000000       0.00000000       0.00000000
C        0.86711711       0.86711711      -0.86711711
O        1.89335947       1.62834381      -0.40839116
C        2.42600576       2.25994038      -1.48409761
C        1.75757828       1.92097962      -2.64524729
C        0.74104978       1.00752893      -2.23082098
C        2.10441415       2.44335533      -3.95690345
O        3.00545468       3.25879189      -4.12032253
N        1.34786155       1.95231801      -4.99239787
C        1.52790190       2.42720918      -6.34106070
C        0.97698119       1.38703719      -7.26231268
C       -0.33980331       1.31650410      -7.68787650
S       -0.63100246      -0.02171187      -8.71687998
C        0.98537751      -0.51068856      -8.61207927
C        1.74738750       0.30629186      -7.81628867
H        3.26627669       2.90997153      -1.27740570
H        0.00301569       0.50860638      -2.84181798
H        0.55489909       1.36037089      -4.80017227
H        2.58898566       2.61251615      -6.53967685
H        0.98958390       3.37567170      -6.44322587
H       -1.15366863       1.98537959      -7.44055253
H        2.80324167       0.15046961      -7.62559545
C        1.50381410      -1.67135563      -9.28859643
C        1.93800475      -2.64341430      -9.85517954
Br       2.64005429      -4.21515095     -10.77129653
C       -0.86711711      -0.86711711      -0.86711711
O       -0.53825702      -1.27100941      -2.12082801
C       -1.56743201      -2.03064034      -2.57197140
C       -2.56997346      -2.12810048      -1.62573125
C       -2.10082178      -1.36523023      -0.51334768
C       -3.79883778      -2.87828334      -1.82755181
O       -4.04853103      -3.45633088      -2.87970718
N       -4.65193580      -2.88912166      -0.75151998
C       -5.93919845      -3.53295943      -0.82401391
C       -6.37615503      -3.82535785       0.57518183
C       -7.09156856      -2.95728434       1.38427563
S       -7.39867081      -3.60542681       2.93993197
C       -6.59418572      -5.04167739       2.54909489
C       -6.09207012      -5.05059185       1.27269395
H       -1.45069653      -2.43315048      -3.56980690
H       -2.59306381      -1.19306974       0.43269350
H       -4.45152571      -2.31969470       0.05577815
H       -5.87193659      -4.44984712      -1.41939495
H       -6.63427762      -2.84998034      -1.32422352
H       -7.44795433      -1.96501305       1.14070389
H       -5.54267894      -5.88175047       0.84512269
C       -6.44963478      -6.14023286       3.46881273
C       -6.32857336      -7.06027306       4.23907643
Br      -6.13282728      -8.54790026       5.48452767
C       -0.86711711       0.86711711       0.86711711
O       -0.54010333       1.26758151       2.12240960
C       -1.56860809       2.02846448       2.57297118
C       -2.56888197       2.13014576       1.62477745
C       -2.09897097       1.36866875       0.51175996
C       -3.79655489       2.88255325       1.82556479
O       -4.04727781       3.45886284       2.87842844
N       -4.64729202       2.89756989       0.74771552
C       -5.93331266       3.54403926       0.81881985
C       -6.36660026       3.84041155      -0.58068075
C       -7.08213426       2.97564429      -1.39320127
S       -7.38445905       3.62781591      -2.94810931
C       -6.57771744       5.06146947      -2.55241868
C       -6.07835285       5.06653306      -1.27491789
H       -1.45316604       2.42856041       3.57192746
H       -2.58953169       1.19962362      -0.43571526
H       -4.44636436       2.32945788      -0.06037999
H       -5.86535822       4.45948847       1.41633197
H       -6.63095118       2.86148831       1.31604199
H       -7.44119369       1.98362344      -1.15255364
H       -5.52809295       5.89557120      -0.84435742
C       -6.42879560       6.16169645      -3.46943714
C       -6.30407355       7.08313655      -4.23744011
Br      -6.10240855       8.57302726      -5.47923594
C        0.86711711      -0.86711711       0.86711711
O        1.01726554      -2.20674162       0.70608728
C        1.86962667      -2.62617217       1.67424491
C        2.27962111      -1.57365448       2.47052960
C        1.61977535      -0.42706856       1.93255577
C        3.19456009      -1.71917028       3.59094256
O        3.64509066      -2.80734726       3.93213117
N        3.51335535      -0.54730743       4.23191466
C        4.35411482      -0.53971781       5.40233914
C        4.92217989       0.83596267       5.54011384
C        4.32184347       1.88104564       6.22377945
S        5.23669761       3.32769733       6.15516538
C        6.43649288       2.57737823       5.22765357
C        6.16854250       1.25897808       4.96040360
H        2.09334587      -3.68507066       1.67523738
H        1.67818318       0.59678389       2.27204076
H        3.04357181       0.30830475       3.98017520
H        5.14677173      -1.28933145       5.30507549
H        3.73657550      -0.80449991       6.26740607
H        3.38208358       1.86994690       6.76012682
H        6.81841235       0.61631078       4.37720515
C        7.61679834       3.25947359       4.76373015
C        8.60530416       3.83072846       4.37519429
Br      10.20363447       4.75439927       3.74696466
