110
Properties=species:S:1:pos:R:3 pbc="F F F"
C        1.77702113       1.77702113      -1.77702113
O        2.80326350       2.53824784      -1.31829518
C        3.33590978       3.16984440      -2.39400164
C        2.66748230       2.83088364      -3.55515131
C        1.65095380       1.91743296      -3.14072500
C        3.01431818       3.35325936      -4.86680747
O        3.91535870       4.16869591      -5.03022655
N        2.25776557       2.86222203      -5.90230190
C        2.43780592       3.33711320      -7.25096472
C        1.88688521       2.29694122      -8.17221670
C        0.57010071       2.22640812      -8.59778052
S        0.27890156       0.88819215      -9.62678401
C        1.89528154       0.39921546      -9.52198330
Br       2.56952292      -1.11026473     -10.40181290
C        2.65729152       1.21619588      -8.72619269
H        4.17618071       3.81987555      -2.18730972
H        0.91291971       1.41851041      -3.75172201
H        1.46480312       2.27027491      -5.71007630
H        3.49888968       3.52242018      -7.44958088
H        1.89948793       4.28557573      -7.35312990
H       -0.24376460       2.89528362      -8.35045655
H        3.71314569       1.06037364      -8.53549947
C       -1.77702113      -1.77702113      -1.77702113
O       -1.34152624      -2.43874809      -2.87953218
C       -2.40931504      -3.10425635      -3.38618443
C       -3.54268152      -2.88429237      -2.62654337
C       -3.11759123      -2.01651600      -1.57500453
C       -4.84019729      -3.46723203      -2.92695568
O       -5.02824717      -4.17717371      -3.90886029
N       -5.83221435      -3.16241037      -2.02766479
C       -7.18713406      -3.61050300      -2.22824679
C       -7.87151251      -3.58487172      -0.89965890
C       -8.53579210      -2.49190748      -0.36658976
S       -9.17939943      -2.80436179       1.18988350
C       -8.59017246      -4.39020603       1.16389820
Br      -8.83536390      -5.59891160       2.57320442
C       -7.91344352      -4.69723962       0.01100305
H       -2.21803709      -3.68826874      -4.27706015
H       -3.70701629      -1.60998714      -0.76614869
H       -5.65726607      -2.49646367      -1.29142460
H       -7.19396749      -4.61722461      -2.65969864
H       -7.66957260      -2.93023643      -2.93838452
H       -8.67250207      -1.51594721      -0.81352629
H       -7.46094814      -5.66272864      -0.18534202
C       -1.77702113       1.77702113       1.77702113
O       -1.77000309       1.75537622       3.13442720
C       -2.68206933       2.67058367       3.54710282
C       -3.28893749       3.29226861       2.47231115
C       -2.68801893       2.70203452       1.31905831
C       -4.30966701       4.31886001       2.60585799
O       -4.73259952       4.68452428       3.69715736
N       -4.75859523       4.84442217       1.41927210
C       -5.81764385       5.82125438       1.38698562
C       -5.71710199       6.55199092       0.08695022
C       -6.32656919       6.16272810      -1.09500794
S       -5.97497304       7.21728022      -2.39837553
C       -5.02120375       8.19968222      -1.40440568
Br      -4.14368725       9.73592327      -2.01853944
C       -4.95343774       7.75489641      -0.10865406
H       -2.79125997       2.77314713       4.61895888
H       -2.88740350       2.91649264       0.27925598
H       -4.45523300       4.44509004       0.54483129
H       -5.72762892       6.50679853       2.23646329
H       -6.77257410       5.29175836       1.47386109
H       -6.96149135       5.30255036      -1.26206614
H       -4.38687748       8.25050317       0.67163815
C        1.77702113      -1.77702113       1.77702113
O        1.96419527      -3.10821504       1.58739621
C        2.80301884      -3.53077699       2.56595999
C        3.16739945      -2.48871642       3.39740138
C        2.49253479      -1.34544486       2.87113211
C        4.05828676      -2.63978943       4.53630883
O        4.52727515      -3.72487216       4.86213386
N        4.33232160      -1.47681074       5.21315717
C        5.14406715      -1.47790535       6.40391136
C        5.67434391      -0.09272172       6.58897750
C        5.03190968       0.92025413       7.28263381
S        5.91200141       2.38987559       7.27175190
C        7.15212555       1.69203860       6.35639335
Br       8.67882615       2.63069483       5.81293977
C        6.92349581       0.37457352       6.05075780
H        3.05283779      -4.58365097       2.54687723
H        2.51730396      -0.32921221       3.23663595
H        3.84769442      -0.62683716       4.97062275
H        5.95719023      -2.20547698       6.30822353
H        4.51253238      -1.77892269       7.24673848
H        4.08001116       0.87312245       7.79508686
H        7.60302379      -0.23752105       5.46847396
C       -0.00445707       0.01189536      -1.78238275
H       -0.66409135       0.67374010      -2.43557963
H        0.65740317      -0.63156657      -2.45157240
C       -0.90989263      -0.90692880      -0.91072765
C        0.90977584       0.90977584      -0.90977584
C       -0.00465871       1.77757030       0.00794375
H       -0.66225468       2.44313916      -0.64384735
H        0.64322798       2.43503045       0.67728295
C       -1.78241447       0.00034974      -0.00472694
H       -2.45427497      -0.65498947       0.64260836
H       -2.43311707       0.67328779      -0.65473579
C       -0.91132561       0.90220522       0.91563759
C       -0.01476271      -0.02253852       1.78660255
H       -0.67934791      -0.69751639       2.42135241
H        0.63392994       0.61504881       2.47327442
C        0.01484550      -1.77751727      -0.01636693
H        0.67870853      -2.42144646      -0.68295456
H       -0.62264859      -2.45592969       0.64226336
C        1.78714474       0.01002794       0.00389507
H        2.44202412       0.67113390       0.66197326
H        2.45385902      -0.65136977      -0.64189061
C        0.91606151      -0.90478549       0.90901405
