182
Properties=species:S:1:pos:R:3 pbc="F F F"
N        7.15306778       3.19104353      -1.38948289
C        7.28193514       4.45336061      -1.90317250
O        8.32712305       5.08255076      -1.81527896
C        6.02821257       4.96822184      -2.60687672
N        5.73506843       4.11048259      -3.77692685
C        4.35151092       4.27397853      -4.23450538
C        3.42069433       3.41216839      -3.39695674
C        3.43560034       2.01382005      -3.54161370
C        2.62171927       1.20650128      -2.74419781
C        1.79191956       1.79191956      -1.79191956
C        1.76420377       3.17615745      -1.63366648
C        2.57462117       3.98406760      -2.43677136
C        6.72275610       4.27624831      -4.86576404
C        6.97662187       5.73360825      -5.29665589
O        6.05437833       6.50066124      -5.55686053
N        8.33050567       6.02267537      -5.36546866
C        8.96028267       7.24439425      -5.69787611
C        8.26316652       8.43796385      -5.89172544
C        8.94742631       9.61778427      -6.20995267
C       10.33413330       9.61602925      -6.34522740
C       11.04611619       8.43454835      -6.15495928
C       10.36337577       7.26011000      -5.82752096
Br      11.39771834       5.67819286      -5.58889009
H        6.40332696       2.60343225      -1.73983736
H        7.97778970       2.75292881      -1.00738101
H        6.15627609       6.02503992      -2.86367243
H        5.22408408       4.92244758      -1.86475537
H        4.23495116       3.93293808      -5.27164214
H        4.03136893       5.32340640      -4.22379715
H        4.09282749       1.55005825      -4.27419885
H        2.64756150       0.12672971      -2.86991295
H        1.12182955       3.63535932      -0.88746008
H        2.55221961       5.06289130      -2.29746544
H        6.41797677       3.71403422      -5.75743983
H        7.66179345       3.81140576      -4.54308132
H        8.98049236       5.27258830      -5.15376871
H        7.18320091       8.49062006      -5.78624341
H        8.39064908      10.54100564      -6.34933242
H       10.85939775      10.53489212      -6.59592264
H       12.12791026       8.43880339      -6.26243262
N       -7.06115566      -1.21728228      -3.45515625
C       -7.58729131      -2.47526810      -3.57590883
O       -8.77776929      -2.65958064      -3.78760282
C       -6.55519357      -3.59419427      -3.45392330
N       -5.57847241      -3.48353867      -4.56046679
C       -4.35095042      -4.23345526      -4.27558915
C       -3.42382319      -3.40281877      -3.40317749
C       -2.76448864      -2.28426219      -3.94228326
C       -1.94872917      -1.48332704      -3.14036214
C       -1.79191956      -1.79191956      -1.79191956
C       -2.43808963      -2.89621548      -1.23972259
C       -3.24952456      -3.70122675      -2.04470882
C       -6.16649516      -3.82358949      -5.87468379
C       -6.91014476      -5.17210869      -5.92463256
O       -6.40128330      -6.20679927      -5.50381753
N       -8.16186754      -5.04951914      -6.50726303
C       -9.14537494      -6.04465303      -6.71252505
C       -9.03784080      -7.34310510      -6.21190991
C      -10.05259791      -8.28053077      -6.44203457
C      -11.18158606      -7.93296013      -7.18084376
C      -11.30604862      -6.64195189      -7.68762330
C      -10.29769889      -5.70447301      -7.44883483
Br     -10.52796576      -3.95937787      -8.17745765
H       -6.06152999      -1.09946865      -3.58559794
H       -7.67161546      -0.43375275      -3.63273130
H       -7.06354377      -4.56347053      -3.41797413
H       -6.07423107      -3.45753584      -2.47952011
H       -3.79474633      -4.44690280      -5.19788226
H       -4.55648915      -5.20762846      -3.81445487
H       -2.89499885      -2.03002450      -4.99206124
H       -1.44758055      -0.62170618      -3.57491743
H       -2.32205073      -3.13611693      -0.18648128
H       -3.75713694      -4.55492070      -1.60051871
H       -5.39468843      -3.84027293      -6.65448946
H       -6.84389284      -3.01071560      -6.16167209
H       -8.43452253      -4.13087491      -6.84145193
H       -8.18171184      -7.65698897      -5.62136356
H       -9.95771071      -9.28527783      -6.03799860
H      -11.96460726      -8.66657177      -7.35903347
H      -12.18875312      -6.37642388      -8.26396927
N       -1.17660257       3.52202628       7.03496535
C       -2.42983384       3.63451640       7.57411802
O       -2.60302884       3.85777043       8.76415348
C       -3.55893879       3.48797170       6.55640065
N       -3.47211256       4.58440274       5.56596257
C       -4.23260450       4.27693399       4.35045634
C       -3.40258424       3.40341884       3.42381638
C       -2.29786103       3.94758585       2.74558721
C       -1.49708299       3.14549449       1.92984087
C       -1.79191956       1.79191956       1.79191956
C       -2.88238309       1.23467379       2.45697081
C       -3.68732108       2.03973385       3.26840519
C       -3.82054176       5.90134240       6.14288429
C       -5.16100941       5.94450913       6.90136747
O       -6.19651030       5.50614450       6.40924530
N       -5.03090962       6.54284216       8.14489793
C       -6.01709780       6.74807371       9.13738151
C       -7.31084866       6.23153485       9.05047230
C       -8.23926682       6.46264063      10.07325579
C       -7.88740479       7.21827769      11.18970747
C       -6.60097529       7.74109013      11.29355840
C       -5.67233155       7.50139590      10.27727928
Br      -3.93322188       8.25239804      10.47918137
H       -1.07166138       3.64230108       6.03263412
H       -0.38828005       3.71549661       7.63432286
H       -4.52189935       3.44685650       7.07623259
H       -3.41656439       2.50972091       6.08500171
H       -4.46294355       5.19028909       3.78629874
H       -5.19901540       3.80715342       4.57240366
H       -2.05423852       5.00161535       2.86123072
H       -0.64626303       3.58402333       1.41391780
H       -3.11146701       0.17751063       2.35567131
H       -4.53003099       1.59173581       3.79080955
H       -3.85495454       6.67198646       5.36250982
H       -3.00337560       6.20531440       6.80759053
H       -4.11312817       6.89055876       8.40316243
H       -7.62763200       5.62765994       8.20477243
H       -9.24031730       6.04615081       9.99451903
H       -8.61407169       7.39710780      11.97903301
H       -6.33207633       8.33052252      12.16654741
N        0.78281686      -6.63883952       4.31193781
C        1.51583262      -6.65468525       5.46795037
O        1.38335850      -7.53723512       6.30435914
C        2.51262544      -5.50386946       5.58681624
N        3.51349857      -5.60759452       4.50138477
C        4.22278637      -4.34057987       4.29662859
C        3.39606170      -3.41725507       3.41650269
C        3.24517585      -3.69853155       2.04732669
C        2.44851423      -2.88692610       1.23697803
C        1.79191956      -1.79191956       1.79191956
C        1.92897009      -1.49789205       3.14716556
C        2.73182378      -2.30722975       3.95640660
C        4.42952343      -6.75548491       4.67976010
C        5.10168106      -6.84168655       6.06351840
O        5.66672041      -5.87630708       6.56887261
N        4.99789168      -8.11168378       6.60907425
C        5.46288758      -8.57987783       7.85978762
C        6.01357211      -7.74548654       8.83379717
C        6.44703916      -8.27037761      10.05774648
C        6.34188821      -9.63500649      10.31849525
C        5.79462184     -10.48241310       9.35858887
C        5.35312721      -9.95617804       8.14170149
Br       4.62217291     -11.17222657       6.87040180
H        1.12670093      -6.08800075       3.53189489
H        0.18452736      -7.42935934       4.12421282
H        2.95589497      -5.50092206       6.58817141
H        1.92432616      -4.58389569       5.50306518
H        5.17194829      -4.49951682       3.76806628
H        4.48272718      -3.85185883       5.24398647
H        3.74433536      -4.56137113       1.61137810
H        2.34308018      -3.12081846       0.18030552
H        1.41322531      -0.64733763       3.58408601
H        2.82338065      -2.07401725       5.01517845
H        5.22489416      -6.74059045       3.92396622
H        3.86361461      -7.67294159       4.47972433
H        4.52926305      -8.82177024       6.05581608
H        6.10589323      -6.67399057       8.68018057
H        6.86579003      -7.60588088      10.80931623
H        6.68352766     -10.03701651      11.26966834
H        5.71562204     -11.54642978       9.56709445
C       -0.00445707       0.01189536      -1.78238275
H       -0.66409135       0.67374010      -2.43557963
H        0.65740317      -0.63156657      -2.45157240
C       -0.90989263      -0.90692880      -0.91072765
C        0.90977584       0.90977584      -0.90977584
C       -0.00465871       1.77757030       0.00794375
H       -0.66225468       2.44313916      -0.64384735
H        0.64322798       2.43503045       0.67728295
C       -1.78241447       0.00034974      -0.00472694
H       -2.45427497      -0.65498947       0.64260836
H       -2.43311707       0.67328779      -0.65473579
C       -0.91132561       0.90220522       0.91563759
C       -0.01476271      -0.02253852       1.78660255
H       -0.67934791      -0.69751639       2.42135241
H        0.63392994       0.61504881       2.47327442
C        0.01484550      -1.77751727      -0.01636693
H        0.67870853      -2.42144646      -0.68295456
H       -0.62264859      -2.45592969       0.64226336
C        1.78714474       0.01002794       0.00389507
H        2.44202412       0.67113390       0.66197326
H        2.45385902      -0.65136977      -0.64189061
C        0.91606151      -0.90478549       0.90901405
