190
Properties=species:S:1:pos:R:3 pbc="F F F"
N        7.15306778       3.19104353      -1.38948289
C        7.28193514       4.45336061      -1.90317250
O        8.32712305       5.08255076      -1.81527896
C        6.02821257       4.96822184      -2.60687672
N        5.73506843       4.11048259      -3.77692685
C        4.35151092       4.27397853      -4.23450538
C        3.42069433       3.41216839      -3.39695674
C        3.43560034       2.01382005      -3.54161370
C        2.62171927       1.20650128      -2.74419781
C        1.79191956       1.79191956      -1.79191956
C        1.76420377       3.17615745      -1.63366648
C        2.57462117       3.98406760      -2.43677136
C        6.72275610       4.27624831      -4.86576404
C        6.97662187       5.73360825      -5.29665589
O        6.05437833       6.50066124      -5.55686053
N        8.33050567       6.02267537      -5.36546866
C        8.96028267       7.24439425      -5.69787611
C        8.26316652       8.43796385      -5.89172544
C        8.94742631       9.61778427      -6.20995267
C       10.33413330       9.61602925      -6.34522740
C       11.04611619       8.43454835      -6.15495928
C       10.36337577       7.26011000      -5.82752096
H        6.40332696       2.60343225      -1.73983736
H        7.97778970       2.75292881      -1.00738101
H        6.15627609       6.02503992      -2.86367243
H        5.22408408       4.92244758      -1.86475537
H        4.23495116       3.93293808      -5.27164214
H        4.03136893       5.32340640      -4.22379715
H        4.09282749       1.55005825      -4.27419885
H        2.64756150       0.12672971      -2.86991295
H        1.12182955       3.63535932      -0.88746008
H        2.55221961       5.06289130      -2.29746544
H        6.41797677       3.71403422      -5.75743983
H        7.66179345       3.81140576      -4.54308132
H        8.98049236       5.27258830      -5.15376871
H        7.18320091       8.49062006      -5.78624341
H        8.39064908      10.54100564      -6.34933242
H       10.85939775      10.53489212      -6.59592264
H       12.12791026       8.43880339      -6.26243262
C       11.14521451       6.06437066      -5.64714469
C       11.80000445       5.06293895      -5.49607956
Br      12.85874441       3.44370859      -5.25182002
N       -5.45154122      -0.51153949      -5.77051348
C       -6.43312958      -1.46521094      -5.74012772
O       -7.45250604      -1.36399936      -6.40844737
C       -6.11709237      -2.65273639      -4.83348238
N       -4.92007727      -3.35641263      -5.34598796
C       -4.31943530      -4.21795519      -4.32260434
C       -3.42031439      -3.39676070      -3.41274436
C       -2.19551606      -2.90176251      -3.89375552
C       -1.38245009      -2.10476718      -3.08520108
C       -1.79191956      -1.79191956      -1.79191956
C       -3.00302940      -2.27286824      -1.29813006
C       -3.81343117      -3.07596505      -2.10606390
C       -5.17933908      -4.06940106      -6.61602830
C       -6.40566697      -5.00205804      -6.59916101
O       -6.57803330      -5.82705286      -5.70681395
N       -7.22584551      -4.79549278      -7.69731142
C       -8.44523175      -5.43212325      -8.02519803
C       -9.09841928      -6.32269411      -7.17174242
C      -10.31018364      -6.91309996      -7.55187965
C      -10.87814792      -6.62592477      -8.79131726
C      -10.24073140      -5.73940171      -9.65549071
C       -9.03687872      -5.14308303      -9.27104498
H       -4.52121696      -0.76871762      -5.45666199
H       -5.55146482       0.24453944      -6.43117414
H       -6.99790135      -3.29792914      -4.74915795
H       -5.94008163      -2.23419146      -3.83701393
H       -3.67791615      -4.98422658      -4.77738865
H       -5.07468842      -4.76212284      -3.74176123
H       -1.87739263      -3.13109216      -4.90859981
H       -0.43892268      -1.73031284      -3.47496863
H       -3.32773652      -2.02565063      -0.29126179
H       -4.76159712      -3.43744670      -1.71353252
H       -4.30918981      -4.66936068      -6.91090034
H       -5.28949746      -3.31903837      -7.40774470
H       -6.93437523      -4.09802556      -8.37444857
H       -8.69975483      -6.56874574      -6.19156381
H      -10.81077214      -7.59805289      -6.87216210
H      -11.81770607      -7.09038478      -9.08212166
H      -10.68803157      -5.51949272     -10.62162198
C       -8.41512939      -4.23849186     -10.20310860
C       -7.89441432      -3.48089676     -10.98371188
Br      -7.05246210      -2.25592955     -12.24588136
N       -0.80076939       6.66542020       4.26740460
C       -1.52511281       6.68453381       5.42882163
O       -1.39304658       7.57441534       6.25749084
C       -2.51217026       5.52714553       5.56399535
N       -3.52199338       5.61500883       4.48547566
C       -4.22312588       4.34113631       4.29573265
C       -3.39606862       3.41740976       3.41634108
C       -3.25770146       3.68936862       2.04396401
C       -2.46102946       2.87765963       1.23372926
C       -1.79191956       1.79191956       1.79191956
C       -1.91646038       1.50720889       3.15035842
C       -2.71931518       2.31659493       3.95955002
C       -4.44537074       6.75725931       4.66213839
C       -5.10767218       6.84892262       6.05029122
O       -5.66148987       5.88317626       6.56723397
N       -5.00944607       8.12379348       6.58541016
C       -5.46851856       8.59798051       7.83605395
C       -6.00543373       7.76689816       8.82052392
C       -6.43361426       8.29781347      10.04373552
C       -6.33690443       9.66514842      10.29333710
C       -5.80339975      10.50932703       9.32289703
C       -5.36712838       9.97718245       8.10669590
H       -1.14633685       6.10606020       3.49419953
H       -0.20996528       7.45899146       4.06914277
H       -2.94781157       5.52848076       6.56869611
H       -1.91752172       4.61103941       5.48272589
H       -5.17744645       4.48884735       3.77323758
H       -4.47215251       3.85770186       5.24871811
H       -3.76671365       4.54505454       1.60531640
H       -2.36538443       3.10427671       0.17454302
H       -1.39095023       0.66394038       3.58975834
H       -2.80107312       2.09077875       5.02072448
H       -5.24630320       6.73057993       3.91256769
H       -3.88800686       7.67742109       4.45085258
H       -4.55044887       8.83316635       6.02323414
H       -6.09073941       6.69359348       8.67573149
H       -6.84158313       7.63591790      10.80348612
H       -6.67439026      10.07180425      11.24401800
H       -5.73094207      11.57547069       9.52273351
C       -4.82893214      10.89316869       7.13462902
C       -4.37819278      11.66030717       6.32052301
Br      -3.64938537      12.90070520       5.00418245
N        1.06926998      -3.70850013       6.95582408
C        2.30802885      -3.79912218       7.53131723
O        2.45108539      -4.05510235       8.71876502
C        3.46305192      -3.58466264       6.55559658
N        3.44258287      -4.65077468       5.52912031
C        4.23035334      -4.28068814       4.34895336
C        3.40194814      -3.40410239       3.42376892
C        2.33705706      -3.96035556       2.69362147
C        1.53670409      -3.15778304       1.87793123
C        1.79191956      -1.79191956       1.79191956
C        2.84255525      -1.22262131       2.50885113
C        3.64729432      -2.02789065       3.32027516
C        3.81509584      -5.97410368       6.07556892
C        5.13191978      -5.99981798       6.87514825
O        6.16761432      -5.51369732       6.43058846
N        4.98240687      -6.64169432       8.09454852
C        5.94322531      -6.84791565       9.11141207
C        7.22173650      -6.28869691       9.08242240
C        8.12473101      -6.52354702      10.12688522
C        7.76271797      -7.32539747      11.20727452
C        6.49119395      -7.89120095      11.25322892
C        5.58749415      -7.64798775      10.21552484
H        0.99961042      -3.79962177       5.94736438
H        0.26926236      -3.94571138       7.52312578
H        4.40748458      -3.53027540       7.10722846
H        3.30400828      -2.59664834       6.11063039
H        4.50751766      -5.16774546       3.76426826
H        5.17371717      -3.78835775       4.61649756
H        2.12404423      -5.02465810       2.76838226
H        0.71698712      -3.60580777       1.32140927
H        3.04049522      -0.15610461       2.44804911
H        4.45840180      -1.57086841       3.88330613
H        3.89868282      -6.71774231       5.27302569
H        2.98779493      -6.32471238       6.70377321
H        4.06869372      -7.02604424       8.31211141
H        7.54514351      -5.64827841       8.26664245
H        9.11380649      -6.07367985      10.09350080
H        8.46976945      -7.50679927      12.01364379
H        6.21430540      -8.51657586      12.09826501
C        4.28779313      -8.26105116      10.30788557
C        3.19929352      -8.77449176      10.38523768
Br       1.43928171      -9.60468180      10.51030951
C       -0.00445707       0.01189536      -1.78238275
H       -0.66409135       0.67374010      -2.43557963
H        0.65740317      -0.63156657      -2.45157240
C       -0.90989263      -0.90692880      -0.91072765
C        0.90977584       0.90977584      -0.90977584
C       -0.00465871       1.77757030       0.00794375
H       -0.66225468       2.44313916      -0.64384735
H        0.64322798       2.43503045       0.67728295
C       -1.78241447       0.00034974      -0.00472694
H       -2.45427497      -0.65498947       0.64260836
H       -2.43311707       0.67328779      -0.65473579
C       -0.91132561       0.90220522       0.91563759
C       -0.01476271      -0.02253852       1.78660255
H       -0.67934791      -0.69751639       2.42135241
H        0.63392994       0.61504881       2.47327442
C        0.01484550      -1.77751727      -0.01636693
H        0.67870853      -2.42144646      -0.68295456
H       -0.62264859      -2.45592969       0.64226336
C        1.78714474       0.01002794       0.00389507
H        2.44202412       0.67113390       0.66197326
H        2.45385902      -0.65136977      -0.64189061
C        0.91606151      -0.90478549       0.90901405
