161
Properties=species:S:1:pos:R:3 pbc="F F F"
C        0.00000000       0.00000000       0.00000000
N        6.24316376       2.28113950      -0.47957886
C        6.37203111       3.54345659      -0.99326848
O        7.41721902       4.17264673      -0.90537493
C        5.11830855       4.05831782      -1.69697270
N        4.82516440       3.20057857      -2.86702282
C        3.44160690       3.36407450      -3.32460136
C        2.51079031       2.50226437      -2.48705271
C        2.52569632       1.10391603      -2.63170968
C        1.71181525       0.29659725      -1.83429378
C        0.88201554       0.88201554      -0.88201554
C        0.85429975       2.26625342      -0.72376245
C        1.66471715       3.07416358      -1.52686733
C        5.81285207       3.36634428      -3.95586002
C        6.06671784       4.82370423      -4.38675187
O        5.14447431       5.59075722      -4.64695651
N        7.42060165       5.11277135      -4.45556463
C        8.05037864       6.33449023      -4.78797208
C        7.35326250       7.52805983      -4.98182141
C        8.03752229       8.70788024      -5.30004864
C        9.42422928       8.70612523      -5.43532337
C       10.13621216       7.52464433      -5.24505526
C        9.45347174       6.35020598      -4.91761694
Br      10.48781431       4.76828883      -4.67898607
H        5.49342293       1.69352823      -0.82993334
H        7.06788567       1.84302479      -0.09747699
H        5.24637207       5.11513589      -1.95376840
H        4.31418005       4.01254355      -0.95485134
H        3.32504714       3.02303405      -4.36173812
H        3.12146491       4.41350238      -3.31389313
H        3.18292347       0.64015423      -3.36429482
H        1.73765747      -0.78317432      -1.96000893
H        0.21192552       2.72545529       0.02244394
H        1.64231558       4.15298728      -1.38756141
H        5.50807274       2.80413020      -4.84753581
H        6.75188942       2.90150174      -3.63317730
H        8.07058833       4.36268427      -4.24386468
H        6.27329688       7.58071603      -4.87633938
H        7.48074506       9.63110162      -5.43942840
H        9.94949372       9.62498810      -5.68601862
H       11.21800623       7.52889936      -5.35252860
N       -6.08936271      -0.21566051      -2.69885890
C       -6.64541131      -1.46238134      -2.80096352
O       -7.83448990      -1.62140023      -3.03935055
C       -5.64688279      -2.60399149      -2.62272478
N       -4.63927850      -2.54804775      -3.70543955
C       -3.43987604      -3.32163126      -3.36877546
C       -2.51389546      -2.49238107      -2.49383085
C       -1.81137637      -1.40595640      -3.04398925
C       -0.99565258      -0.60537845      -2.24167525
C       -0.88201554      -0.88201554      -0.88201554
C       -1.57133915      -1.95418225      -0.31879423
C       -2.38277032      -2.75902672      -1.12395102
C       -5.20193783      -2.90754808      -5.02557046
C       -5.97958552      -4.23723521      -5.06035322
O       -5.50942557      -5.27320278      -4.59955968
N       -7.21212629      -4.09782668      -5.67898466
C       -8.21606867      -5.07229160      -5.88448069
C       -8.15602642      -6.35934211      -5.34777521
C       -9.18902202      -7.27599035      -5.58043881
C      -10.28890070      -6.91907562      -6.35770156
C      -10.36589793      -5.63918969      -6.90082413
C       -9.33952797      -4.72209256      -6.65967413
Br      -9.50446452      -2.99158501      -7.43903968
H       -5.08392270      -0.12724227      -2.80571953
H       -6.67400952       0.57840359      -2.91278151
H       -6.18154595      -3.55850093      -2.57522949
H       -5.18782188      -2.45399656      -1.63975651
H       -2.86586917      -3.57380142      -4.27014871
H       -3.68306154      -4.27757742      -2.88822145
H       -1.90789891      -1.17638793      -4.10308568
H       -0.46073571       0.23115352      -2.68490990
H       -1.48898694      -2.16895814       0.74300820
H       -2.92418522      -3.58721428      -0.67146476
H       -4.41093762      -2.96488227      -5.78391886
H       -5.84986796      -2.08533340      -5.35136711
H       -7.45156312      -3.18163454      -6.04393963
H       -7.32409090      -6.67947287      -4.72678853
H       -9.13132304      -8.27177458      -5.14817745
H      -11.08625179      -7.63666404      -6.53758461
H      -11.22604173      -5.36631729      -7.50707518
N       -0.42477855       6.21695174       2.36215183
C       -0.95439381       6.33547327       3.61888910
O       -0.86085021       7.37045610       4.26393438
C       -1.68268097       5.08476430       4.10615380
N       -2.84447290       4.82013615       3.22815674
C       -3.32352981       3.44103440       3.36571855
C       -2.48693702       2.51057388       2.50259649
C       -2.61161709       2.54698522       1.10271971
C       -1.81429060       1.73324524       0.29517044
C       -0.88201554       0.88201554       0.88201554
C       -0.74372113       0.83280142       2.26779307
C       -1.54679205       1.64315049       3.07580551
C       -3.92168687       5.82069357       3.39267593
C       -4.36953405       6.06030491       4.84733498
O       -4.65335462       5.13123808       5.59759533
N       -4.42356704       7.41087001       5.15450058
C       -4.76438958       8.02820865       6.38024272
C       -4.98475522       7.31735076       7.56103776
C       -5.31005040       7.98954456       8.74585622
C       -5.42596973       9.37791313       8.76179502
C       -5.20914830      10.10351711       7.59324633
C       -4.87469868       9.43263742       6.41395856
Br      -4.59938342      10.48542935       4.85027644
H       -0.77720563       5.48048436       1.75919451
H       -0.02508601       7.04221618       1.94108525
H       -1.95256290       5.20171619       5.16099727
H       -0.95125336       4.27095430       4.05936728
H       -4.35727072       3.34388671       3.00866188
H       -3.33209543       3.10619532       4.41056966
H       -3.32836205       3.22088125       0.63812921
H       -1.92437780       1.77588840      -0.78577412
H       -0.01308646       0.17362658       2.72822383
H       -1.42305548       1.60376865       4.15604015
H       -4.80949319       5.53638869       2.81385688
H       -3.57943311       6.76146189       2.94567346
H       -4.19227116       8.06818208       4.41668405
H       -4.89507124       6.23537529       7.59990577
H       -5.47018694       7.42199249       9.65909564
H       -5.68227550       9.89382219       9.68440274
H       -5.30160119      11.18655654       7.61127647
N       -0.25926273      -3.78288416       5.48026070
C        0.87370352      -3.78648032       6.24857234
O        0.87860139      -4.22706573       7.38957356
C        2.10579243      -3.22736454       5.54044209
N        2.43332124      -4.08210587       4.37733869
C        3.31150444      -3.39069486       3.42808346
C        2.48912065      -2.49806114       2.51292559
C        1.66491124      -3.06899811       1.52741267
C        0.86648628      -2.26373034       0.71248966
C        0.88201554      -0.88201554       0.88201554
C        1.69202944      -0.29818641       1.85409977
C        2.49584956      -1.10464278       2.66525571
C        2.95039407      -5.41002066       4.77464164
C        4.11356459      -5.37897554       5.78463381
O        5.10024023      -4.66942791       5.61251989
N        3.89863816      -6.24476143       6.84553804
C        4.71528149      -6.48223870       7.97532077
C        5.86176316      -5.73951974       8.26186084
C        6.62316523      -6.01855783       9.40372812
C        6.25155686      -7.04707641      10.26704461
C        5.11047616      -7.79818529       9.99725030
C        4.34585948      -7.51234103       8.86309416
Br       2.80194896      -8.58349153       8.54964873
H       -0.15757424      -3.70070303       4.47375571
H       -1.08024197      -4.23681685       5.85181256
H        2.93024203      -3.13038834       6.25464600
H        1.84108728      -2.21121010       5.22927757
H        3.82908872      -4.10567936       2.77505123
H        4.09927948      -2.81715240       3.93242853
H        1.63788850      -4.14918985       1.40029417
H        0.23476733      -2.72349391      -0.04376916
H        1.70188637       0.77936070       1.99241120
H        3.11659538      -0.63861081       3.42765809
H        3.28710324      -5.97581313       3.89682239
H        2.11403519      -5.98925906       5.18327421
H        3.04666392      -6.79607441       6.83439896
H        6.18472526      -4.92133475       7.62429228
H        7.50866232      -5.42524611       9.61736664
H        6.84903087      -7.26108838      11.15038118
H        4.82558320      -8.59995091      10.67390008
