45
Properties=species:S:1:pos:R:3 pbc="F F F"
C        0.00000000       0.00000000       0.00000000
C        0.87492197       0.87492197      -0.87492197
S        0.55708981       2.52909840      -1.10030233
C        1.92199665       2.62743934      -2.12415158
Br       2.35977598       4.25234708      -2.95408951
C        2.56137147       1.40278639      -2.23472839
N        1.92048500       0.39263685      -1.49706432
C        3.76311602       1.05092339      -3.00464373
O        4.08817876      -0.10864791      -3.25163338
N        4.57329084       2.06221647      -3.43765485
H        4.41477301       3.03683951      -3.22990424
H        5.41497563       1.79525269      -3.93011540
C       -0.87492197      -0.87492197      -0.87492197
S       -0.35452616      -2.39015973      -1.44180466
C       -1.85095170      -2.57654200      -2.24609388
Br      -2.17858239      -4.10786951      -3.27976067
C       -2.67902363      -1.48555893      -2.03430369
N       -2.07696185      -0.50067221      -1.23255211
C       -4.03965340      -1.24374649      -2.53528326
O       -4.57710907      -0.13828923      -2.51576594
N       -4.75087318      -2.30687006      -3.01541892
H       -4.41055004      -3.25679473      -3.01417200
H       -5.69850355      -2.12470475      -3.31713542
C       -0.87492197       0.87492197       0.87492197
S       -2.44649275       0.41270792       1.32728987
C       -2.60159801       1.87683001       2.19515955
Br      -4.20762914       2.28161596       3.07696747
C       -1.44776815       2.63999262       2.11112549
N       -0.45542606       2.03023081       1.32452930
C       -1.15915173       3.95228240       2.70724901
O       -0.21845746       4.65990828       2.35279850
N       -1.95718500       4.38971209       3.72626507
H       -2.71321990       3.84913605       4.11916081
H       -1.71590437       5.27628707       4.14815227
C        0.87492197      -0.87492197       0.87492197
S        2.38088703      -0.34664174       1.45896178
C        2.57869272      -1.85278043       2.24211442
Br       4.14991879      -2.21433616       3.20195761
C        1.48577292      -2.67920557       2.03390776
N        0.50607119      -2.08155251       1.22256246
C        1.24856412      -4.04374975       2.52636927
O        0.38107535      -4.78354588       2.06654300
N        2.00877474      -4.49740793       3.56697949
H        2.70110391      -3.93805581       4.04235704
H        1.80122240      -5.42345214       3.91566917
