53
Properties=species:S:1:pos:R:3 pbc="F F F"
C        0.00000000       0.00000000       0.00000000
C        0.87492197       0.87492197      -0.87492197
S        0.55708981       2.52909840      -1.10030233
C        1.92199665       2.62743934      -2.12415158
C        2.56137147       1.40278639      -2.23472839
N        1.92048500       0.39263685      -1.49706432
C        3.76311602       1.05092339      -3.00464373
O        4.08817876      -0.10864791      -3.25163338
N        4.57329084       2.06221647      -3.43765485
H        4.41477301       3.03683951      -3.22990424
H        5.41497563       1.79525269      -3.93011540
C        2.25796529       3.87445583      -2.76107776
C        2.53933903       4.91883213      -3.29450343
Br       2.99429656       6.60750029      -4.15700764
C       -0.87492197      -0.87492197      -0.87492197
S       -0.31811695      -2.34284158      -1.52553201
C       -1.83829282      -2.55936962      -2.27592514
C       -2.70006453      -1.51359392      -1.98522781
N       -2.10505112      -0.53741287      -1.16772217
C       -4.08919787      -1.30918136      -2.42030392
O       -4.66951367      -0.22898288      -2.33266768
N       -4.77650769      -2.38102896      -2.91562551
H       -4.39839076      -3.31508376      -2.96804225
H       -5.74256039      -2.22683866      -3.17094467
C       -2.07524297      -3.71114236      -3.10711355
C       -2.27368872      -4.67575203      -3.80323384
Br      -2.59455871      -6.23544429      -4.92880148
C       -0.87492197       0.87492197       0.87492197
S       -2.42861116       0.39204603       1.36583335
C       -2.59536809       1.86932170       2.20889779
C       -1.45811417       2.65224376       2.08852831
N       -0.46922567       2.04627716       1.29468334
C       -1.18350298       3.98086940       2.65431076
O       -0.26331823       4.69910903       2.26873698
N       -1.97049971       4.42265201       3.68001044
H       -2.70856309       3.87560028       4.09735339
H       -1.73833839       5.32149760       4.08050773
C       -3.82070172       2.16967766       2.90311950
C       -4.84691864       2.42122577       3.48453019
Br      -6.50622459       2.82795779       4.42462210
C        0.87492197      -0.87492197       0.87492197
S        2.33330222      -0.31181767       1.54137065
C        2.56201420      -1.84003915       2.27153422
C        1.51340054      -2.69993683       1.98554888
N        0.54282607      -2.10862570       1.15873439
C        1.31351057      -4.09205665       2.41311593
O        0.49637378      -4.84608408       1.88870637
N        2.04987642      -4.55783256       3.46545318
H        2.69899681      -3.99156045       3.99095950
H        1.86715136      -5.50504247       3.76814989
C        3.74804482      -2.09961135       3.04584271
C        4.74134547      -2.31700306       3.69432606
Br       6.34742861      -2.66850707       4.74286880
