118
Properties=species:S:1:pos:R:3 pbc="F F F"
C        1.81093038       1.81093038      -1.81093038
H        1.28847575       2.12140890      -2.71702651
C        3.09019709       1.09545897      -2.10040596
H        3.14430613       0.17031283      -2.65711107
C        4.29465151       1.80071098      -1.54727367
H        4.78863140       1.13707024      -0.82775480
C        5.31542367       2.19554400      -2.63466145
C        4.78047529       2.98188998      -3.80343982
H        4.58515678       2.45284254      -4.73228086
C        4.39039345       4.40081016      -3.67202383
H        3.41283394       4.53737678      -3.20091385
C        4.49559571       5.15849740      -4.93870340
H        3.65955165       5.41536117      -5.57527050
C        5.51001915       6.10933100      -4.43065590
H        6.46394977       6.04632029      -4.96081942
Br       4.85437253       7.90701775      -4.24181831
C        5.48406151       5.32877578      -3.10642517
O        6.08112128       5.39576194      -2.05107806
C        3.74150057       2.96631927      -0.80695531
H        4.27802807       3.72233849      -0.25895759
C        2.28159715       2.99446406      -1.00417017
O        1.59333988       3.91100774      -0.57999372
H        6.14994824       2.73931248      -2.17644918
H        5.75632223       1.27524916      -3.04114361
C       -1.81093038      -1.81093038      -1.81093038
H       -2.86382749      -1.72485077      -1.53823289
C       -1.31435031      -3.21885592      -1.75285579
H       -1.30851657      -3.81331373      -0.84989974
C       -0.83432124      -3.72663187      -3.08168305
H        0.22716797      -3.98676641      -2.99385800
C       -1.60764030      -4.96986863      -3.56812019
C       -3.10979499      -4.85565464      -3.60035545
H       -3.67664130      -5.30447499      -2.78916390
C       -3.80542755      -4.04044249      -4.61735740
H       -3.78164367      -2.96863298      -4.40084791
C       -5.17952598      -4.50795578      -4.90531476
H       -6.08051983      -4.05051522      -4.51914828
C       -4.91285220      -4.80675893      -6.33039492
H       -5.02782871      -5.86530597      -6.57795479
Br      -5.82491011      -3.63056191      -7.54773657
C       -3.45635492      -4.38349951      -6.07940804
O       -2.44041235      -4.34404095      -6.74350799
C       -0.95715983      -2.56056706      -3.99704826
H       -0.70892746      -2.50682068      -5.04357601
C       -1.57657843      -1.44819955      -3.25545339
O       -1.87990735      -0.39951003      -3.80492396
H       -1.24008581      -5.26874042      -4.55688368
H       -1.36317375      -5.80800210      -2.90153915
C       -1.81093038       1.81093038       1.81093038
H       -2.86877844       1.57820188       1.67993084
C       -1.49940353       3.24679070       1.53986779
H       -1.66447268       3.72353385       0.58372350
C       -0.94340382       3.96230684       2.73692550
H        0.06245031       4.32362390       2.49228285
C       -1.80534087       5.16415708       3.17613117
C       -3.26980140       4.89208736       3.40391633
H       -3.97206248       5.17409932       2.62411839
C       -3.74586341       4.13649604       4.58086799
H       -3.61496499       3.05525073       4.48090885
C       -5.12727493       4.48349197       4.98202962
H       -6.00222264       3.88705504       4.76090564
C       -4.74575430       4.98141345       6.32283829
H       -4.96162024       6.04345370       6.46601554
Br      -5.36943042       3.87064853       7.76312964
C       -3.28444172       4.69155264       5.94326811
O       -2.20515133       4.84424552       6.47856443
C       -0.82256322       2.91044965       3.78176229
H       -0.45731461       3.01230518       4.78970436
C       -1.37834186       1.65508937       3.24680014
O       -1.48968872       0.65468858       3.93996404
H       -1.37174851       5.61979683       4.07416457
H       -1.73906708       5.93612642       2.39752150
C        1.81093038      -1.81093038       1.81093038
H        1.21466391      -2.48991429       2.42233295
C        2.71462371      -0.94480123       2.62663707
H        2.35979416      -0.24323989       3.36869598
C        4.16809341      -1.15786603       2.31667671
H        4.58929798      -0.21442417       1.94973429
C        4.98532074      -1.61896507       3.54134331
C        4.46104735      -2.82058943       4.28416831
H        3.90989444      -2.65456071       5.20582504
C        4.55672394      -4.18380745       3.72269606
H        3.79947094      -4.39056035       2.96109328
C        4.59447055      -5.24293219       4.75539378
H        3.75285924      -5.86236936       5.03495473
C        5.93561907      -5.74018773       4.37419925
H        6.67971309      -5.62470331       5.16667308
Br       5.91239379      -7.49725244       3.59356236
C        5.97745704      -4.62455782       3.31724761
O        6.79034552      -4.23329582       2.50431994
C        4.17481905      -2.14023644       1.19971966
H        5.02379097      -2.55360147       0.68193171
C        2.78637279      -2.55731841       0.93654017
O        2.52117804      -3.43486644       0.12829686
H        6.02600232      -1.79507899       3.24462860
H        5.02431031      -0.78881025       4.25959444
C       -0.00445707       0.01189536      -1.78238275
H       -0.66409135       0.67374010      -2.43557963
H        0.65740317      -0.63156657      -2.45157240
C       -0.90989263      -0.90692880      -0.91072765
C        0.90977584       0.90977584      -0.90977584
C       -0.00465871       1.77757030       0.00794375
H       -0.66225468       2.44313916      -0.64384735
H        0.64322798       2.43503045       0.67728295
C       -1.78241447       0.00034974      -0.00472694
H       -2.45427497      -0.65498947       0.64260836
H       -2.43311707       0.67328779      -0.65473579
C       -0.91132561       0.90220522       0.91563759
C       -0.01476271      -0.02253852       1.78660255
H       -0.67934791      -0.69751639       2.42135241
H        0.63392994       0.61504881       2.47327442
C        0.01484550      -1.77751727      -0.01636693
H        0.67870853      -2.42144646      -0.68295456
H       -0.62264859      -2.45592969       0.64226336
C        1.78714474       0.01002794       0.00389507
H        2.44202412       0.67113390       0.66197326
H        2.45385902      -0.65136977      -0.64189061
C        0.91606151      -0.90478549       0.90901405
