105
Properties=species:S:1:pos:R:3 pbc="F F F"
C        0.00000000       0.00000000       0.00000000
C        0.90102636       0.90102636      -0.90102636
H        0.37857172       1.21150487      -1.80712249
C        2.18029306       0.18555495      -1.19050194
H        2.23440211      -0.73959119      -1.74720705
C        3.38474749       0.89080696      -0.63736964
H        3.87872738       0.22716622       0.08214923
C        4.40551965       1.28563998      -1.72475742
C        3.87057126       2.07198596      -2.89353580
H        3.67525276       1.54293852      -3.82237683
C        3.48048943       3.49090614      -2.76211981
H        2.50292992       3.62747275      -2.29100983
C        3.58569168       4.24859338      -4.02879938
H        2.74964763       4.50545715      -4.66536647
C        4.60011512       5.19942697      -3.52075188
H        5.55404574       5.13641627      -4.05091539
C        4.57415749       4.41887176      -2.19652115
O        5.17121726       4.48585791      -1.14117404
C        2.83159655       2.05641525       0.10294871
H        3.36812404       2.81243447       0.65094643
C        1.37169312       2.08456003      -0.09426614
O        0.68343586       3.00110372       0.32991031
H        5.24004421       1.82940846      -1.26654516
H        4.84641821       0.36534514      -2.13123959
C        4.10909955       6.54571959      -3.37933088
C        3.69787400       7.67323965      -3.26089079
Br       3.03295707       9.49634423      -3.06938319
C       -0.90102636      -0.90102636      -0.90102636
H       -0.92062748      -0.54456616      -1.93200544
C       -2.26476250      -0.99375573      -0.29783172
H       -2.92245777      -0.14458774      -0.17497246
C       -2.63175259      -2.39124542       0.11007393
H       -2.81133296      -2.40402596       1.19161455
C       -3.89353207      -2.91727893      -0.60510605
C       -3.89863997      -2.82815817      -2.10929488
H       -4.45088134      -2.01578268      -2.57390410
C       -3.06860378      -3.72148389      -2.94342770
H       -2.01749050      -3.42169536      -2.98222663
C       -3.62254678      -3.94295648      -4.29758118
H       -3.26924830      -3.45511253      -5.19611042
C       -3.79184360      -5.40337799      -4.12507238
H       -4.83480804      -5.72616393      -4.18040544
C       -3.27249242      -5.22835956      -2.68869842
O       -3.10191715      -5.96098804      -1.73534401
C       -1.41440653      -3.19797042      -0.17268614
H       -1.26298401      -4.25234592      -0.01428214
C       -0.41394125      -2.32506190      -0.81151615
O        0.64492503      -2.76410801      -1.23544630
H       -4.08728832      -3.95154430      -0.29716521
H       -4.75658570      -2.34047748      -0.24593975
C       -2.90339510      -6.18765779      -4.94309712
C       -2.15931949      -6.84449211      -5.62819284
Br      -0.95621215      -7.90653767      -6.73593468
C       -0.90102636       0.90102636       0.90102636
H       -1.49435525       1.59688583       0.30595799
C       -0.04899290       1.59208289       1.91527416
H        0.72331636       2.30450227       1.66083205
C       -0.38421830       1.20273129       3.32597450
H        0.50082963       0.74304973       3.78152428
C       -0.82010292       2.40032395       4.19549018
C       -1.93004019       3.25917191       3.64688092
H       -1.66503224       4.20114388       3.17439199
C       -3.33067899       2.79034719       3.61248919
H       -3.53320319       2.09688507       2.79132423
C       -4.31937295       3.89055868       3.65315281
H       -4.85799178       4.26811091       2.79436856
C       -4.93422080       3.45779947       4.92827370
H       -4.81957084       4.18930563       5.73250094
C       -3.89651038       2.32420385       4.96883617
O       -3.61815946       1.43380219       5.74628756
C       -1.43615848       0.15998063       3.18892398
H       -1.94174210      -0.38218663       3.97005661
C       -1.77053830       0.01911547       1.76086552
O       -2.67856344      -0.70583353       1.38189936
H       -1.08850742       2.04878040       5.19871001
H        0.05079788       3.05397620       4.33982461
C       -6.28127143       2.97004885       4.78282973
C       -7.40942633       2.56155771       4.66102040
Br      -9.23355738       1.90106209       4.46406503
C        0.90102636      -0.90102636       0.90102636
H        1.70152428      -0.32634392       1.36933088
C        1.41286535      -2.04948248       0.09400211
H        2.06632172      -1.93533914      -0.75964290
C        0.93433902      -3.38010770       0.59847736
H        0.35188997      -3.86543393      -0.19357954
C        2.08676732      -4.32013299       1.00901674
C        3.09509497      -3.76152511       1.97947295
H        4.04494485      -3.40858110       1.58704216
C        2.77004302      -3.55732127       3.40615108
H        2.17531818      -2.65770509       3.58838923
C        3.95346889      -3.61714698       4.29246858
H        4.45652356      -2.75486312       4.70908457
C        3.47122934      -4.78431183       5.06475280
H        4.11374139      -5.66304563       4.96459039
C        2.24271669      -4.80609890       4.14073480
O        1.26390400      -5.51462318       4.01972203
C        0.01547998      -3.04912581       1.72045729
H       -0.54200133      -3.72565029       2.34596311
C        0.03527931      -1.59011187       1.92512812
O       -0.56110996      -1.06310772       2.85263150
H        1.67538667      -5.25646034       1.40415083
H        2.63694029      -4.60430449       0.10175815
C        3.13205165      -4.47293895       6.42915942
C        2.84799033      -4.21216416       7.57184996
Br       2.38868720      -3.79051338       9.41948392
