153
Properties=species:S:1:pos:R:3 pbc="F F F"
C        0.00000000       0.00000000       0.00000000
C        0.87900916       0.87900916      -0.87900916
C        2.23635446       0.73908353      -1.01213319
S        2.87835379       1.91368035      -2.07765512
C        1.32548977       2.59886428      -2.37045545
C        0.34588009       1.94347600      -1.64653121
C        1.19987036       3.71487758      -3.23794158
C        0.97872712       3.57983104      -4.56004605
C        0.80537947       2.28734271      -5.32179770
H        0.51960065       1.47113927      -4.64957668
C        2.08275635       1.94403518      -6.10041650
C        1.88140067       2.59004200      -7.47003244
C        0.52065672       3.28841303      -7.36567185
H       -0.00464738       3.29015267      -8.32672547
N       -0.22344411       2.51238460      -6.35500209
C       -0.77562440       1.26697866      -6.88245769
C        0.69042467       4.69723380      -6.84241630
C        0.68771972       5.83298071      -7.56591145
C        0.56357582       5.83946108      -8.97958358
S        1.97183950       5.74535606      -9.96694594
C        1.05668256       5.84687194     -11.40813492
C       -0.28249220       5.95958188     -11.13777459
Br      -1.63047579       6.11113336     -12.44694642
C       -0.57784998       5.96046423      -9.75201305
C        0.89661025       4.84712386      -5.36182747
O        1.02038300       5.95261053      -4.83584643
H        2.88692160       0.01707712      -0.53825103
H       -0.70009958       2.22513485      -1.67703895
H        1.30611809       4.70022258      -2.78775331
H        2.99440537       2.31200347      -5.61674736
H        2.18651566       0.85882313      -6.21800242
H        2.70238977       3.27261150      -7.71474489
H        1.85878510       1.81282716      -8.24362051
H       -1.51767615       1.48408332      -7.65856964
H       -1.30227483       0.72525350      -6.08878627
H       -0.02525731       0.59365244      -7.30931850
H        0.81459795       6.80057228      -7.08349006
H        1.54882170       5.82680860     -12.37056869
H       -1.57171377       6.04951175      -9.32906089
C       -0.87900916      -0.87900916      -0.87900916
C       -1.29668914      -0.54853653      -2.14234551
S       -2.27633286      -1.78063991      -2.81271649
C       -2.12355867      -2.76419359      -1.40705723
C       -1.35009851      -2.14197601      -0.44381277
C       -2.78344686      -4.01922056      -1.35002211
C       -2.19794442      -5.16156347      -1.75909631
C       -0.79667000      -5.31750076      -2.30034912
H       -0.16458171      -4.47442326      -2.00131162
C       -0.82218250      -5.47849526      -3.82653026
C       -0.90316689      -6.98740752      -4.05090070
C       -0.95605389      -7.58048096      -2.63820676
H       -0.46169983      -8.55680420      -2.59372672
N       -0.26022417      -6.59362641      -1.79009201
C        1.19471808      -6.67569213      -1.89283790
C       -2.38808879      -7.67998197      -2.16200402
C       -3.15799100      -8.78465336      -2.14396754
C       -2.70931793     -10.03821461      -2.63508794
S       -2.94533434     -10.44723285      -4.29157431
C       -2.23499821     -11.98947296      -4.08721825
C       -1.84060973     -12.18523578      -2.78901875
Br      -1.02718552     -13.75813974      -2.14227873
C       -2.10972453     -11.07796446      -1.94693831
C       -3.02502966      -6.41191211      -1.66861980
O       -4.17750479      -6.39345537      -1.23787979
H       -1.08646989       0.35002629      -2.70580614
H       -1.13989232      -2.58482396       0.52264207
H       -3.80365325      -4.01994623      -0.97049450
H       -1.66271459      -4.95973962      -4.30070198
H        0.10032352      -5.08975924      -4.27390549
H       -1.76883840      -7.25416464      -4.66674312
H       -0.00553166      -7.32929275      -4.58040836
H        1.54330259      -7.64592648      -1.52235292
H        1.65847802      -5.91304859      -1.25719437
H        1.57661614      -6.54393454      -2.91039523
H       -4.18084039      -8.74427151      -1.77354838
H       -2.15312348     -12.66870918      -4.92436633
H       -1.88482404     -11.03439079      -0.88764405
C       -0.87900916       0.87900916       0.87900916
C       -0.91378318       2.24853060       0.82525740
S       -2.01434342       2.88536976       1.96997608
C       -2.45408133       1.31539875       2.52532941
C       -1.75149649       0.33249959       1.85189121
C       -3.40322546       1.17814897       3.57131509
C       -4.72432696       1.05849568       3.33578156
C       -5.40420256       1.02261696       1.98770035
H       -4.69692637       0.74443011       1.19896012
C       -6.07262902       2.37050922       1.68406978
C       -7.49393517       2.22319000       2.22434994
C       -7.52676131       0.81605921       2.83192108
H       -8.51766314       0.35969729       2.73487033
N       -6.51508142       0.05553405       2.07332712
C       -6.98955860      -0.37677460       0.76102796
C       -7.09260726       0.85737633       4.28009118
C       -7.89180808       0.83121495       5.36358887
C       -9.30759122       0.80529600       5.26973327
S      -10.19261830       2.28180278       5.20972042
C      -11.69369421       1.46419174       5.15380346
C      -11.51923742       0.10500216       5.19062468
Br     -12.92043848      -1.15588391       5.16304942
C      -10.15895915      -0.28522517       5.26089332
C       -5.61573792       0.95018077       4.53964289
O       -5.16080796       0.96519630       5.68283570
H       -0.34975179       2.91010821       0.18238975
H       -1.86925259      -0.72490371       2.05772533
H       -3.01654662       1.18877000       4.58877736
H       -5.55754580       3.22061172       2.14499869
H       -6.10765867       2.55234664       0.60333590
H       -7.73164890       3.01317375       2.94492351
H       -8.21156788       2.30476165       1.39890325
H       -7.82535601      -1.07570498       0.87532578
H       -6.19604838      -0.92097384       0.23669040
H       -7.31910253       0.44349008       0.11512102
H       -7.47047191       0.86128831       6.36690007
H      -12.61846404       2.02218344       5.10555151
H       -9.80856113      -1.30971724       5.30801499
C        0.87900916      -0.87900916       0.87900916
C        1.50335584      -2.02511394       0.45910140
S        2.39528482      -2.74524106       1.72916339
C        1.95232462      -1.50418965       2.83829522
C        1.12292878      -0.57267468       2.24028384
C        2.41456763      -1.55926865       4.17885325
C        3.56777953      -0.98205808       4.56876658
C        4.52002241      -0.18827949       3.70621798
H        4.01731024       0.18414654       2.80715290
C        5.75144115      -1.03041097       3.34535591
C        6.75920006      -0.72906906       4.45320598
C        6.02008414       0.23436165       5.38901912
H        6.70744065       0.94916637       5.85395647
N        5.04285160       0.92285081       4.52394180
C        5.64051720       1.98444561       3.71774036
C        5.25324286      -0.53674693       6.44008499
C        5.62277761      -0.74581867       7.71801561
C        6.85694393      -0.28234934       8.24332721
S        8.26009248      -1.27678064       8.14726838
C        9.22209949      -0.12378884       8.96580108
C        8.48670327       0.98097420       9.30913519
Br       9.16725219       2.47516967      10.23552147
C        7.13100667       0.90138126       8.90500189
C        3.94780198      -1.14517771       6.01258190
O        3.23843819      -1.77056481       6.79983695
H        1.47999442      -2.48257956      -0.52032425
H        0.71872955       0.28373772       2.76708238
H        1.79773974      -2.10834786       4.88800639
H        5.53693481      -2.10305267       3.28316872
H        6.16495051      -0.71993220       2.37845850
H        7.09354753      -1.64630476       4.94989388
H        7.64540720      -0.24669311       4.02313246
H        6.03186630       2.77465753       4.36776803
H        4.87611293       2.44954880       3.08520081
H        6.45419482       1.64507793       3.06859674
H        4.98836066      -1.31548295       8.39481668
H       10.26767475      -0.32139152       9.15713272
H        6.38280815       1.66383500       9.08788573
