182
Properties=species:S:1:pos:R:3 pbc="F F F"
C        1.78891318       1.78891318      -1.78891318
C        3.14625849       1.64898755      -1.92203721
S        3.78825782       2.82358437      -2.98755914
C        2.23539379       3.50876830      -3.28035947
C        1.25578412       2.85338002      -2.55643523
C        2.10977439       4.62478161      -4.14784560
C        1.88863114       4.48973506      -5.46995007
C        1.71528349       3.19724674      -6.23170172
H        1.42950468       2.38104329      -5.55948071
C        2.99266037       2.85393920      -7.01032052
C        2.79130469       3.49994603      -8.37993647
C        1.43056075       4.19831706      -8.27557588
H        0.90525664       4.20005669      -9.23662949
N        0.68645992       3.42228863      -7.26490612
C        0.13427962       2.17688268      -7.79236172
C        1.60032870       5.60713782      -7.75232033
C        1.59762375       6.74288474      -8.47581548
C        1.47347985       6.74936510      -9.88948760
S        2.88174352       6.65526009     -10.87684996
C        1.96658658       6.75677596     -12.31803894
C        0.62741182       6.86948590     -12.04767861
C        0.33205405       6.87036825     -10.66191707
C        1.80651428       5.75702788      -6.27173150
O        1.93028702       6.86251455      -5.74575045
H        3.79682562       0.92698114      -1.44815505
H        0.20980444       3.13503887      -2.58694297
H        2.21602211       5.61012660      -3.69765734
H        3.90430939       3.22190749      -6.52665139
H        3.09641969       1.76872715      -7.12790645
H        3.61229379       4.18251552      -8.62464892
H        2.76868912       2.72273118      -9.15352454
H       -0.60777212       2.39398734      -8.56847366
H       -0.39237081       1.63515753      -6.99869030
H        0.88464671       1.50355646      -8.21922253
H        1.72450198       7.71047630      -7.99339408
H        2.45872572       6.73671263     -13.28047271
H       -0.66180975       6.95941578     -10.23896492
C       -0.40224125       6.98524803     -13.04768545
C       -1.26457570       7.08219881     -13.88519117
Br      -2.65889758       7.23896003     -15.23936710
C       -1.78891318      -1.78891318      -1.78891318
C       -1.33150538      -2.55849913      -2.82727874
S       -2.61360866      -3.39952673      -3.58626595
C       -3.78050557      -2.73846493      -2.50555107
C       -3.18959233      -1.87821885      -1.59778819
C       -5.14976056      -3.08167553      -2.65096550
C       -5.70183105      -4.13260202      -2.01388321
C       -5.01224061      -5.07540798      -1.05658336
H       -4.10502383      -4.62113485      -0.64387000
C       -4.70055888      -6.41133416      -1.74502706
C       -5.92502674      -7.28089178      -1.46526866
C       -6.86600117      -6.36928304      -0.66916947
H       -7.45879333      -6.93820304       0.05505354
N       -5.97400182      -5.41048357       0.01083073
C       -5.32929654      -5.97038911       1.19616162
C       -7.76275876      -5.59106100      -1.60596709
C       -9.04697208      -5.86321406      -1.90613783
C       -9.73101093      -6.99344402      -1.38787761
S       -9.68504448      -8.49082732      -2.23798177
C      -10.69471471      -9.25694971      -1.08973706
C      -11.06156109      -8.38826143      -0.09475380
C      -10.52008036      -7.08881902      -0.25543999
C       -7.15560611      -4.39572244      -2.28394510
O       -7.80966567      -3.68376163      -3.04512473
H       -0.31746544      -2.66842037      -3.18607601
H       -3.74866072      -1.34581146      -0.83731410
H       -5.74240019      -2.46090212      -3.32050374
H       -4.52146788      -6.31020438      -2.82119601
H       -3.81099231      -6.87729480      -1.30476617
H       -6.36793975      -7.65820136      -2.39331713
H       -5.62957340      -8.15016827      -0.86520318
H       -6.08307543      -6.22189017       1.95027672
H       -4.66871103      -5.22369079       1.65092481
H       -4.73580798      -6.86856084       0.99694312
H       -9.60396488      -5.22994484      -2.59446264
H      -10.96980265     -10.29550668      -1.21060172
H      -10.69591959      -6.25563396       0.41498260
C      -11.91661614      -8.72727205       1.01319596
C      -12.63272473      -9.01119344       1.94110389
Br     -13.79061177      -9.47027031       3.44145253
C       -1.78891318       1.78891318       1.78891318
C       -2.88743348       1.34871701       2.48113276
S       -3.62475862       2.62539401       3.34924870
C       -2.45447593       3.76564572       2.80439992
C       -1.53347890       3.17155367       1.96056680
C       -2.54951741       5.12191516       3.21096903
C       -1.94155615       5.58718364       4.31957649
C       -1.07014520       4.80266353       5.27142322
H       -0.67978754       3.89879115       4.79144999
C       -1.84198158       4.46146555       6.55347296
C       -1.54760410       5.62503001       7.49855307
C       -0.65932707       6.56722529       6.67790132
H        0.06272409       7.09246683       7.31220009
N        0.02470956       5.68960302       5.70876120
C        1.14576929       4.95694051       6.29235281
C       -1.50860419       7.54914246       5.90204019
C       -1.75850953       8.83219166       6.22562278
C       -1.26665589       9.43135430       7.41432237
S       -2.19498156       9.35561167       8.86326034
C       -1.03962610      10.26473975       9.73703564
C        0.01630524      10.62178856       8.93909302
C       -0.10300103      10.15454445       7.60679388
C       -2.15255001       7.03823116       4.64449249
O       -2.84215954       7.76562848       3.93076400
H       -3.30132729       0.35058256       2.52005196
H       -0.71946538       3.71588689       1.49643401
H       -3.15552850       5.77874681       2.58953074
H       -2.91896183       4.34401966       6.38988678
H       -1.47129919       3.52812128       6.99363281
H       -2.47096979       6.09651564       7.85197280
H       -1.00911593       5.25591478       8.37991413
H        1.92218502       5.65693322       6.61994067
H        1.60556079       4.31136753       5.53567028
H        0.87075870       4.33084479       7.14733961
H       -2.38437418       9.45506918       5.58892900
H       -1.20073615      10.49391490      10.78126001
H        0.61788607      10.33625972       6.81819730
C        1.14609307      11.39998809       9.37679720
C        2.09229037      12.05173020       9.74337445
Br       3.62221139      13.10554207      10.33609887
C        1.78891318      -1.78891318       1.78891318
C        1.38882383      -2.35824120       2.97021822
S        2.65231824      -3.26950497       3.67757812
C        3.73119069      -2.90909527       2.38423561
C        3.12926745      -2.09142739       1.44490454
C        5.05620560      -3.41652677       2.40966922
C        5.38555214      -4.60199695       1.86076718
C        4.46316641      -5.54966356       1.13140198
H        3.56921569      -5.02839383       0.77241915
C        4.09041357      -6.73785274       2.02865378
C        5.15161621      -7.79409545       1.72547552
C        6.07741186      -7.12220440       0.70483742
H        6.49278826      -7.84977646      -0.00062189
N        5.22245947      -6.13904855       0.01214664
C        4.35900256      -6.74376455      -0.99924309
C        7.18091623      -6.36719085       1.41167977
C        8.45203472      -6.77451671       1.58977254
C        8.91787827      -8.04175103       1.15270326
S        8.80912449      -9.40564463       2.19908445
C        9.55266571     -10.43513651       1.05359926
C        9.88155527      -9.75075435      -0.08773328
C        9.52726989      -8.37961893      -0.04254945
C        6.82035969      -5.02727022       1.98764374
O        7.65322393      -4.32528915       2.56003894
H        0.42765421      -2.28440009       3.45990751
H        3.63885750      -1.73583501       0.55709377
H        5.80517563      -2.80681165       2.91181878
H        4.07378540      -6.48458660       3.09449627
H        3.09947147      -7.12714898       1.76643283
H        5.66882160      -8.11420852       2.63642810
H        4.67451088      -8.68049013       1.28994383
H        4.96672187      -7.18485663      -1.79688962
H        3.73693909      -5.97377512      -1.46923720
H        3.69478841      -7.52173143      -0.60909414
H        9.17002740      -6.14537777       2.11296719
H        9.71490372     -11.47945338       1.28155396
H        9.70851009      -7.66500015      -0.83693928
C       10.52990548     -10.33427245      -1.23348571
C       11.07289878     -10.82296887      -2.19305337
Br      11.95087303     -11.61314964      -3.74459311
C       -0.00445707       0.01189536      -1.78238275
H       -0.66409135       0.67374010      -2.43557963
H        0.65740317      -0.63156657      -2.45157240
C       -0.90989263      -0.90692880      -0.91072765
C        0.90977584       0.90977584      -0.90977584
C       -0.00465871       1.77757030       0.00794375
H       -0.66225468       2.44313916      -0.64384735
H        0.64322798       2.43503045       0.67728295
C       -1.78241447       0.00034974      -0.00472694
H       -2.45427497      -0.65498947       0.64260836
H       -2.43311707       0.67328779      -0.65473579
C       -0.91132561       0.90220522       0.91563759
C       -0.01476271      -0.02253852       1.78660255
H       -0.67934791      -0.69751639       2.42135241
H        0.63392994       0.61504881       2.47327442
C        0.01484550      -1.77751727      -0.01636693
H        0.67870853      -2.42144646      -0.68295456
H       -0.62264859      -2.45592969       0.64226336
C        1.78714474       0.01002794       0.00389507
H        2.44202412       0.67113390       0.66197326
H        2.45385902      -0.65136977      -0.64189061
C        0.91606151      -0.90478549       0.90901405
