121
Properties=species:S:1:pos:R:3 pbc="F F F"
C        0.00000000       0.00000000       0.00000000
C        0.88184877       0.88184877      -0.88184877
C        0.33964981       1.49180380      -2.00807354
C        1.14985226       2.28950046      -2.81120844
C        2.49686433       2.47781627      -2.48182593
C        3.06516481       1.87882672      -1.34065455
C        2.22557309       1.06906457      -0.55077223
C        4.48543290       2.06862433      -0.97389127
N        5.06188313       1.03763050      -0.31273942
C        6.34604396       1.10930131       0.06779118
C        6.88467790       0.01721770       0.73533778
C        8.21439480      -0.00855791       1.16140926
C        9.02667444       1.08541107       0.91122791
C        8.51397603       2.19632430       0.24412258
C        7.15904393       2.22988908      -0.18334311
C        6.53703568       3.30028581      -0.86860345
C        5.19674245       3.22033065      -1.26115748
C        7.26844045       4.55816707      -1.18264230
O        7.91957165       5.08124806      -0.28175705
Cl       7.13690406       5.20901949      -2.80263522
H       -0.70518212       1.34738375      -2.27002303
H        0.73648391       2.76090686      -3.69934930
H        3.10104701       3.08841236      -3.14942918
H        2.63057431       0.58117295       0.33501040
H        6.24934580      -0.84533923       0.92898161
H        8.59541355      -0.88403319       1.68095445
H        9.17461651       3.04189126       0.06249557
H        4.71183675       4.05861194      -1.75098380
C       10.40151346       1.07237720       1.33930242
C       11.55294113       1.06146134       1.69781483
Br      13.41470231       1.04381131       2.27749906
C       -0.88184877      -0.88184877      -0.88184877
C       -0.29363164      -1.76084609      -1.78504942
C       -1.10264998      -2.55761948      -2.59029170
C       -2.49571236      -2.47563711      -2.48515705
C       -3.11355233      -1.60061112      -1.57048263
C       -2.27177607      -0.79899253      -0.77464130
C       -4.58375922      -1.50213843      -1.44205084
N       -5.05819769      -0.29293978      -1.06111559
C       -6.37689558      -0.09795569      -0.91270282
C       -6.80451769       1.16598950      -0.52802962
C       -8.15679891       1.47083674      -0.35846546
C       -9.10572824       0.48652021      -0.58164957
C       -8.70677828      -0.79168592      -0.96771355
C       -7.33119362      -1.10819805      -1.13288444
C       -6.81594040      -2.36698782      -1.52299671
C       -5.43937168      -2.56465586      -1.67420304
C       -7.70619782      -3.53444481      -1.76860719
O       -8.57081169      -3.78047124      -0.93129382
Cl      -7.44909829      -4.47986379      -3.21959669
H        0.78760627      -1.82720846      -1.87262248
H       -0.65085147      -3.23929860      -3.30658999
H       -3.09138499      -3.09752107      -3.14998249
H       -2.71210392      -0.10299831      -0.06163462
H       -6.06074535       1.94221639      -0.35649600
H       -8.44788736       2.47352236      -0.05606090
H       -9.47390026      -1.54537288      -1.13473905
H       -5.04514933      -3.54166829      -1.93461487
C      -10.50446077       0.78622950      -0.41635697
C      -11.67589927       1.03723603      -0.27792441
Br     -13.57001624       1.44309236      -0.05409068
C       -0.88184877       0.88184877       0.88184877
C       -1.91461220       0.30869480       1.61622015
C       -2.71869806       1.11842948       2.41343363
C       -2.48329895       2.49646292       2.47674466
C       -1.43692674       3.09751756       1.75020179
C       -0.64458722       2.25665029       0.94417239
C       -1.17000763       4.55122318       1.80671768
N       -0.63298119       5.09150866       0.68776321
C       -0.35028245       6.40161389       0.63565776
C        0.19162532       6.89996789      -0.54178475
C        0.50893169       8.25102859      -0.69766927
C        0.27602280       9.12634888       0.35053152
C       -0.26611262       8.65529232       1.54477281
C       -0.58225774       7.27967171       1.71034667
C       -1.13680761       6.69543008       2.87368725
C       -1.42765492       5.32798934       2.92258632
C       -1.41492324       7.49856627       4.09576031
O       -0.53228355       8.25261429       4.49767892
Cl      -2.96789282       7.30098332       4.87968263
H       -2.10350466      -0.76053988       1.56925988
H       -3.53495046       0.67981398       2.98197563
H       -3.15007066       3.09653283       3.09228506
H        0.16877770       2.68548033       0.36003423
H        0.37126888       6.21463776      -1.36834393
H        0.93183585       8.59891332      -1.63665156
H       -0.43703295       9.36532560       2.35165365
H       -1.81555901       4.87605704       3.82981643
C        0.59270420      10.52341880       0.20387363
C        0.85792487      11.69346486       0.08104765
Br       1.28676426      13.58533037      -0.11755156
C        0.88184877      -0.88184877       0.88184877
C        1.33728295      -0.39840257       2.10384164
C        2.14561027      -1.20456297       2.90038793
C        2.49054302      -2.49202529       2.47393821
C        2.03259281      -3.00669903       1.24535425
C        1.22411156      -2.16662028       0.45467805
C        2.38319964      -4.36582336       0.77892549
N        2.45172072      -4.52421007      -0.56367773
C        2.75987687      -5.71845316      -1.09077593
C        2.82323539      -5.81775861      -2.47443619
C        3.14716992      -7.01450683      -3.11724912
C        3.41682163      -8.14021286      -2.35617688
C        3.36020165      -8.07144027      -0.96546416
C        3.02245281      -6.85769105      -0.30786774
C        2.93866908      -6.67453156       1.09272429
C        2.61489317      -5.42694517       1.63639223
C        3.16933319      -7.79651041       2.04340623
O        2.60148131      -8.86244203       1.81865342
Cl       4.21681820      -7.51416422       3.41757635
H        1.07445842       0.60140897       2.43917521
H        2.51479536      -0.83006176       3.85188295
H        3.14417335      -3.07984527       3.11486994
H        0.85775893      -2.52540928      -0.50643136
H        2.61610418      -4.93321699      -3.07429621
H        3.18534821      -7.04813125      -4.20305355
H        3.57541679      -8.97175653      -0.39316113
H        2.51240559      -5.29974372       2.70928317
C        3.75764969      -9.38050457      -3.00356602
C        4.04309318     -10.41924889      -3.54575442
Br       4.50463117     -12.09881059      -4.42242721
