134
Properties=species:S:1:pos:R:3 pbc="F F F"
C        1.79173644       1.79173644      -1.79173644
C        1.61146131       3.17345401      -1.78316550
C        2.40663358       3.97241763      -2.60271788
C        3.37716982       3.38668260      -3.41571834
F        4.07232346       4.18945503      -4.23339121
C        3.58687224       2.00231558      -3.41808968
C        2.76698618       1.20589117      -2.60195541
C        4.59046167       1.35884555      -4.26012271
N        4.49333370       0.14389834      -4.80208180
N        5.64453276      -0.12369997      -5.53357675
C        6.39654562       0.92683485      -5.39046921
S        7.94517405       1.43147857      -5.89288927
C        7.64874494       2.90069608      -4.92806888
N        6.51189617       2.99487147      -4.29307261
N        5.82381212       1.86436768      -4.60096247
C        8.67335184       3.93764033      -4.88332719
N        9.82090341       3.82780420      -5.58842621
N       10.50325113       4.95216062      -5.32119374
H       11.41005283       5.08025550      -5.76115802
C        9.85835034       5.79055923      -4.46765787
C        8.67700688       5.16437636      -4.16755638
H        0.85161544       3.63267258      -1.15550809
H        2.26998702       5.05007203      -2.62561272
H        2.89183773       0.12366141      -2.60314867
H       10.28604585       6.73392682      -4.15981336
C        7.66125553       5.68516135      -3.28969979
C        6.81056378       6.12131878      -2.55449489
Br       5.43506717       6.82654845      -1.36573075
C       -1.79173644      -1.79173644      -1.79173644
C       -2.95466087      -1.26408931      -2.34933064
C       -3.76523217      -2.07769077      -3.13884614
C       -3.40434734      -3.40521565      -3.37000777
F       -4.24811534      -4.16545687      -4.08159749
C       -2.22700573      -3.94360677      -2.83666500
C       -1.42788903      -3.11944623      -2.02749750
C       -1.82412164      -5.32916806      -3.05614024
N       -1.15172763      -6.09343730      -2.19414891
N       -0.94926550      -7.34805131      -2.75709273
C       -1.48793525      -7.28738969      -3.93852474
S       -1.66698438      -8.31908033      -5.28347718
C       -2.45198788      -6.93634295      -6.08917907
N       -2.55939763      -5.82050601      -5.41993660
N       -2.02001570      -6.07093030      -4.19819627
C       -2.94483355      -7.09709909      -7.45238672
N       -2.85701322      -8.27960456      -8.10051603
N       -3.41382921      -8.06088352      -9.30189275
H       -3.45788259      -8.83425479      -9.95932898
C       -3.85617682      -6.78718317      -9.47320745
C       -3.56771469      -6.14202987      -8.29919507
H       -3.24219998      -0.23167254      -2.16592359
H       -4.68599534      -1.69195221      -3.56772422
H       -0.51931396      -3.52000468      -1.57932917
H       -4.32600691      -6.46305585     -10.39072328
C       -3.85756347      -4.75962729      -8.01892591
C       -4.10031182      -3.60186514      -7.78420049
Br      -4.49281538      -1.72986165      -7.40466933
C       -1.79173644       1.79173644       1.79173644
C       -3.05083342       1.33779243       2.17945496
C       -3.85892913       2.15334602       2.96949393
C       -3.40069341       3.40843963       3.37043772
F       -4.23857431       4.18194958       4.07464581
C       -2.12883322       3.86923869       3.00920559
C       -1.33102849       3.04627197       2.19753230
C       -1.62233466       5.17852582       3.40856945
N       -0.79497709       5.94643384       2.69790291
N       -0.53497451       7.11458530       3.40484974
C       -1.19692611       6.99934466       4.51757890
S       -1.41699534       7.91284986       5.93969669
C       -2.40821276       6.54960361       6.51969353
N       -2.54998148       5.51897525       5.73088351
N       -1.86526828       5.82582210       4.59805189
C       -3.02285960       6.63171249       7.83974727
N       -2.89201440       7.73237529       8.61274412
N       -3.58888650       7.46064866       9.72707032
H       -3.62809284       8.16906584      10.45430768
C       -4.16458033       6.22943425       9.72255285
C       -3.81757559       5.67117020       8.52019383
H       -3.41363645       0.36276302       1.86339663
H       -4.85151154       1.82683284       3.26732739
H       -0.34711188       3.39054224       1.88099369
H       -4.75572051       5.87101640      10.55304912
C       -4.20553532       4.35897484       8.07160650
C       -4.53045160       3.26001123       7.69591462
Br      -5.05581373       1.48308002       7.08845262
C        1.79173644      -1.79173644       1.79173644
C        1.61964354      -3.17441010       1.77402719
C        2.41469556      -3.97351696       2.59355657
C        3.37700038      -3.38690898       3.41566139
F        4.07207061      -4.19039824       4.23270084
C        3.57854023      -2.00137745       3.42735982
C        2.75877022      -1.20497430       2.61108824
C        4.57338784      -1.35701394       4.27902816
N        4.46594943      -0.14586365       4.82750076
N        5.61125837       0.12415416       5.56730533
C        6.37026028      -0.92110617       5.42248322
S        7.91886582      -1.41963301       5.93104306
C        7.63672837      -2.88485898       4.95592255
N        6.50418512      -2.98194345       4.31371167
N        5.80767609      -1.85731222       4.62415396
C        8.66765992      -3.91551394       4.91114550
N        9.81040361      -3.80311897       5.62361122
N       10.50090265      -4.92187569       5.35382714
H       11.40585419      -5.04725187       5.79836029
C        9.86594499      -5.75899631       4.49162614
C        8.68271414      -5.13797696       4.18824852
H        0.86619415      -3.63436415       1.13923781
H        2.28425755      -5.05206788       2.60934634
H        2.87724588      -0.12205881       2.61934312
H       10.30097362      -6.69802045       4.18079197
C        7.67519298      -5.65952008       3.30140361
C        6.83139401      -6.09631244       2.55867100
Br       5.46704244      -6.80256874       1.35773519
C       -0.00445707       0.01189536      -1.78238275
H       -0.66409135       0.67374010      -2.43557963
H        0.65740317      -0.63156657      -2.45157240
C       -0.90989263      -0.90692880      -0.91072765
C        0.90977584       0.90977584      -0.90977584
C       -0.00465871       1.77757030       0.00794375
H       -0.66225468       2.44313916      -0.64384735
H        0.64322798       2.43503045       0.67728295
C       -1.78241447       0.00034974      -0.00472694
H       -2.45427497      -0.65498947       0.64260836
H       -2.43311707       0.67328779      -0.65473579
C       -0.91132561       0.90220522       0.91563759
C       -0.01476271      -0.02253852       1.78660255
H       -0.67934791      -0.69751639       2.42135241
H        0.63392994       0.61504881       2.47327442
C        0.01484550      -1.77751727      -0.01636693
H        0.67870853      -2.42144646      -0.68295456
H       -0.62264859      -2.45592969       0.64226336
C        1.78714474       0.01002794       0.00389507
H        2.44202412       0.67113390       0.66197326
H        2.45385902      -0.65136977      -0.64189061
C        0.91606151      -0.90478549       0.90901405
