126
Properties=species:S:1:pos:R:3 pbc="F F F"
C        1.79173644       1.79173644      -1.79173644
C        1.61146131       3.17345401      -1.78316550
C        2.40663358       3.97241763      -2.60271788
C        3.37716982       3.38668260      -3.41571834
F        4.07232346       4.18945503      -4.23339121
C        3.58687224       2.00231558      -3.41808968
C        2.76698618       1.20589117      -2.60195541
C        4.59046167       1.35884555      -4.26012271
N        4.49333370       0.14389834      -4.80208180
N        5.64453276      -0.12369997      -5.53357675
C        6.39654562       0.92683485      -5.39046921
S        7.94517405       1.43147857      -5.89288927
C        7.64874494       2.90069608      -4.92806888
N        6.51189617       2.99487147      -4.29307261
N        5.82381212       1.86436768      -4.60096247
C        8.67335184       3.93764033      -4.88332719
N        9.82090341       3.82780420      -5.58842621
N       10.50325113       4.95216062      -5.32119374
H       11.41005283       5.08025550      -5.76115802
C        9.85835034       5.79055923      -4.46765787
C        8.67700688       5.16437636      -4.16755638
Br       7.35575980       5.84179180      -3.02567706
H        0.85161544       3.63267258      -1.15550809
H        2.26998702       5.05007203      -2.62561272
H        2.89183773       0.12366141      -2.60314867
H       10.28604585       6.73392682      -4.15981336
C       -1.79173644      -1.79173644      -1.79173644
C       -2.65591300      -1.20080425      -2.71136356
C       -3.47135721      -2.00905349      -3.50135839
C       -3.41128890      -3.39669436      -3.37158750
F       -4.26033157      -4.12856239      -4.10627574
C       -2.53133116      -4.00663411      -2.46931224
C       -1.72800112      -3.18126859      -1.66556305
C       -2.44801997      -5.45469689      -2.30671308
N       -2.16742243      -6.09895421      -1.17293720
N       -2.17470839      -7.46826770      -1.41143345
C       -2.43950883      -7.59681813      -2.67752271
S       -2.60063725      -8.87287496      -3.79602967
C       -2.84645858      -7.60570872      -5.02534260
N       -2.80404641      -6.36048081      -4.63531302
N       -2.59331129      -6.40221235      -3.29361863
C       -3.08681876      -7.99824422      -6.40925638
N       -3.16841601      -9.29769382      -6.77102398
N       -3.40751233      -9.27760772      -8.09148543
H       -3.51144151     -10.16523449      -8.57479036
C       -3.47933331      -8.02444496      -8.61278916
C       -3.27630007      -7.17886113      -7.55377843
Br      -3.26163434      -5.30846334      -7.65313097
H       -2.70986804      -0.11939095      -2.81053711
H       -4.16595958      -1.56846384      -4.21124835
H       -1.05240321      -3.62877329      -0.93747130
H       -3.66546478      -7.85129077      -9.66303048
C       -1.79173644       1.79173644       1.79173644
C       -1.62664551       3.17514296       1.76629235
C       -2.42159608       3.97437205       2.58580096
C       -3.37685766       3.38710193       3.41561116
F       -4.07186321       4.19119802       4.23210847
C       -3.57141041       2.00066115       3.43520594
C       -2.75173977       1.20427490       2.61881808
C       -4.55877834       1.35562286       4.29502874
N       -4.44256287       0.14777778       4.84897319
N       -5.58281535      -0.12423128       5.59582548
C       -6.34774200       0.91650525       5.44960242
S       -7.89627155       1.40986077       5.96340957
C       -7.62631202       2.87158027       4.97961761
N       -6.49747544       2.97108452       4.33128028
N       -5.79381994       1.85149597       4.64382636
C       -8.66259110       3.89685960       4.93486866
N       -9.80120203       3.78234559       5.65358619
N      -10.49861615       4.89629284       5.38169648
H      -11.40196133       5.01938755       5.83011748
C       -9.87214487       5.73224128       4.51218129
C       -8.68734853       5.11560485       4.20598624
Br      -7.38596576       5.79474144       3.04252147
H       -0.87866983       3.63565984       1.12546643
H       -2.29647265       5.05362366       2.59557546
H       -2.86475979       0.12083846       2.63304956
H      -10.31340088       6.66752559       4.19885956
C        1.79173644      -1.79173644       1.79173644
C        2.59504302      -1.20532297       2.76771483
C        3.41118396      -2.01255651       3.55802861
C        3.41223982      -3.39511513       3.37221581
F        4.26098942      -4.12255221       4.11162807
C        2.59327081      -4.00181867       2.41218801
C        1.78906782      -3.17647078       1.60929416
C        2.57483177      -5.44428125       2.19031692
N        2.36464728      -6.05265969       1.02200687
N        2.41792854      -7.42916825       1.20731275
C        2.63839454      -7.59833815       2.47711699
S        2.80738152      -8.91128111       3.55087926
C        2.95400202      -7.68617436       4.83733352
N        2.87653436      -6.42880432       4.49450157
N        2.71985289      -6.42450150       3.14478788
C        3.15614892      -8.12461811       6.21355232
N        3.27602447      -9.43346453       6.52764481
N        3.46271969      -9.45742200       7.85646379
H        3.58355955     -10.35912950       8.30877731
C        3.46363872      -8.22447469       8.42845403
C        3.26787622      -7.34535614       7.39570726
Br       3.17390219      -5.48246853       7.56685793
H        2.60142770      -0.12751425       2.91085415
H        4.05938401      -1.57436333       4.31192443
H        1.16082748      -3.62009655       0.83772378
H        3.60175606      -8.08675390       9.49127607
C       -0.00445707       0.01189536      -1.78238275
H       -0.66409135       0.67374010      -2.43557963
H        0.65740317      -0.63156657      -2.45157240
C       -0.90989263      -0.90692880      -0.91072765
C        0.90977584       0.90977584      -0.90977584
C       -0.00465871       1.77757030       0.00794375
H       -0.66225468       2.44313916      -0.64384735
H        0.64322798       2.43503045       0.67728295
C       -1.78241447       0.00034974      -0.00472694
H       -2.45427497      -0.65498947       0.64260836
H       -2.43311707       0.67328779      -0.65473579
C       -0.91132561       0.90220522       0.91563759
C       -0.01476271      -0.02253852       1.78660255
H       -0.67934791      -0.69751639       2.42135241
H        0.63392994       0.61504881       2.47327442
C        0.01484550      -1.77751727      -0.01636693
H        0.67870853      -2.42144646      -0.68295456
H       -0.62264859      -2.45592969       0.64226336
C        1.78714474       0.01002794       0.00389507
H        2.44202412       0.67113390       0.66197326
H        2.45385902      -0.65136977      -0.64189061
C        0.91606151      -0.90478549       0.90901405
