113
Properties=species:S:1:pos:R:3 pbc="F F F"
C        0.00000000       0.00000000       0.00000000
C        0.88183241       0.88183241      -0.88183241
C        0.70155729       2.26354998      -0.87326147
C        1.49672955       3.06251360      -1.69281386
C        2.46726579       2.47677858      -2.50581431
F        3.16241944       3.27955100      -3.32348718
C        2.67696821       1.09241155      -2.50818566
C        1.85708215       0.29598715      -1.69205138
C        3.68055765       0.44894152      -3.35021869
N        3.58342968      -0.76600569      -3.89217777
N        4.73462874      -1.03360399      -4.62367273
C        5.48664159       0.01693083      -4.48056518
S        7.03527003       0.52157455      -4.98298524
C        6.73884092       1.99079205      -4.01816485
N        5.60199214       2.08496744      -3.38316858
N        4.91390809       0.95446366      -3.69105845
C        7.76344782       3.02773630      -3.97342317
N        8.91099938       2.91790017      -4.67852218
N        9.59334710       4.04225659      -4.41128971
H       10.50014881       4.17035148      -4.85125400
C        8.94844632       4.88065520      -3.55775385
C        7.76710285       4.25447234      -3.25765236
H       -0.05828859       2.72276855      -0.24560407
H        1.36008300       4.14016800      -1.71570870
H        1.98193370      -0.78624261      -1.69324465
H        9.37614183       5.82402280      -3.24990934
C        6.75135151       4.77525733      -2.37979576
C        5.90065976       5.21141475      -1.64459086
Br       4.52516314       5.91664442      -0.45582672
C       -0.88183241      -0.88183241      -0.88183241
C       -2.07499224      -0.37272577      -1.39065073
C       -2.88486400      -1.18692107      -2.18027195
C       -2.49341781      -2.49628345      -2.46015742
F       -3.33569873      -3.26033715      -3.16942175
C       -1.28625530      -3.01501815      -1.97629197
C       -0.48755492      -2.19116295      -1.16640282
C       -0.85086025      -4.38147580      -2.24738181
N       -0.13225170      -5.14992775      -1.42742232
N        0.08916711      -6.38166062      -2.03220396
C       -0.48521145      -6.30329026      -3.19563589
S       -0.67409584      -7.30125649      -4.56447749
C       -1.52109600      -5.91972385      -5.30697797
N       -1.64051226      -4.82689338      -4.60272253
N       -1.05887288      -5.09599047      -3.40456686
C       -2.04871580      -6.05610453      -6.65978696
N       -1.94636924      -7.21671738      -7.34433511
N       -2.54393685      -6.98038225      -8.52257431
H       -2.58521356      -7.73577913      -9.20076160
C       -3.02698533      -5.71577568      -8.64409436
C       -2.72281356      -5.09599705      -7.46041693
H       -2.38618737       0.64526264      -1.16915931
H       -3.82829183      -0.81619276      -2.57147511
H        0.44467687      -2.57760048      -0.75601212
H       -3.53235030      -5.37962524      -9.53809841
C       -3.04340524      -3.73112257      -7.13187679
C       -3.31190077      -2.58804019      -6.85672441
Br      -3.74603533      -0.73977267      -6.41182630
C       -0.88183241       0.88183241       0.88183241
C       -2.17070975       0.46241149       1.20524750
C       -2.97783991       1.27861984       1.99559726
C       -2.48934653       2.49963941       2.46087274
F       -3.32448539       3.27816528       3.16280696
C       -1.18848469       2.92444159       2.16463915
C       -0.39107647       2.10202136       1.35202285
C       -0.64973944       4.19779009       2.63218833
N        0.23193016       4.95914704       1.98238489
N        0.50756058       6.08965630       2.74260175
C       -0.20027073       5.95890417       3.82496270
S       -0.44077599       6.82714221       5.27191161
C       -1.50301002       5.48237029       5.76241751
N       -1.65237481       4.48768309       4.93007027
N       -0.91398546       4.80964088       3.83580386
C       -2.16426348       5.53924077       7.06110304
N       -2.02262149       6.60486407       7.87993618
N       -2.77115067       6.31912389       8.95661884
H       -2.81202157       7.00124660       9.70848611
C       -3.39122209       5.11183726       8.88379602
C       -3.01927893       4.58538615       7.67456247
H       -2.55683378      -0.48571756       0.83896782
H       -3.99244518       0.97956594       2.24394859
H        0.61624504       2.41982798       1.08535280
H       -4.02650458       4.74594084       9.67762854
C       -3.43787674       3.30641235       7.16211550
C       -3.78845241       2.23527180       6.73294116
Br      -4.35530362       0.50332811       6.03900256
C        0.88183241      -0.88183241       0.88183241
C        0.34979212      -2.03668257       1.45189405
C        1.15329286      -2.82868953       2.27007462
C        2.47949385      -2.46537150       2.50499334
F        3.19282537      -3.22292322       3.34970904
C        3.03588479      -1.32111212       1.92056851
C        2.21116447      -0.52096660       1.11298962
C        4.41786826      -0.91165228       2.15019732
N        4.86444664       0.34463216       2.18978729
N        6.23410244       0.33565668       2.42625172
C        6.56332012      -0.91958010       2.50123738
S        7.99014429      -1.82485314       2.72483238
C        6.96559989      -3.26818675       2.51401119
N        5.69196844      -3.08558277       2.29257696
N        5.50379209      -1.74008787       2.31555023
C        7.57715488      -4.58956471       2.59788770
N        8.89129766      -4.74368326       2.87244082
N        9.09162474      -6.07067623       2.88459243
H       10.02771073      -6.41378628       3.08025727
C        7.97025674      -6.79299855       2.62360008
C        6.97818024      -5.86691927       2.43412804
H       -0.68528746      -2.31932764       1.27604386
H        0.75316711      -3.72301020       2.73978239
H        2.61131494       0.38835831       0.66597911
H        7.97825566      -7.87325015       2.59856814
C        5.60451371      -6.17282421       2.12906667
C        4.45406800      -6.42901960       1.87357778
Br       2.59389458      -6.84326587       1.46047384
