122
Properties=species:S:1:pos:R:3 pbc="F F F"
C        1.77693886       1.77693886      -1.77693886
C        1.64627253       1.92734319      -3.13900158
C        2.66237294       2.82994620      -3.53787257
C        3.34484373       3.17747739      -2.39021670
O        2.80944282       2.53172436      -1.31409200
C        4.48271703       4.09339684      -2.12148510
N        5.75084448       3.37894661      -2.25767169
C        6.14824148       2.54910666      -1.13029475
C        6.40293082       3.44802649      -3.49969846
O        5.92438967       4.15889301      -4.38767218
C        7.64262755       2.70312753      -3.72083072
C        8.07514606       1.45670196      -3.29676746
C        9.37860447       1.12332137      -3.78366794
C        9.86823697       2.10794041      -4.59878498
Br      11.52997903       2.00994253      -5.45767471
S        8.81825015       3.41949294      -4.76699595
H        0.90983384       1.44950545      -3.76909944
H        2.87473885       3.19352752      -4.53462865
H        4.41927291       4.51263790      -1.11118161
H        4.43830379       4.94518239      -2.80939355
H        5.71769295       2.93836045      -0.20267103
H        7.23321073       2.54684402      -1.01917503
H        5.78075685       1.53326618      -1.29559171
H        7.49206343       0.79068177      -2.67380174
H        9.90102495       0.20212083      -3.55844957
C       -1.77693886      -1.77693886      -1.77693886
C       -1.36050122      -2.44730152      -2.90481456
C       -2.49576901      -3.13461323      -3.39980947
C       -3.53216438      -2.84362016      -2.53675329
O       -3.09713371      -2.01043834      -1.54768713
C       -4.95513505      -3.26495736      -2.47750655
N       -5.78771338      -2.34691164      -3.25283778
C       -6.13046532      -1.08726813      -2.60990943
C       -6.07100582      -2.69628490      -4.58336505
O       -5.67444710      -3.78269441      -5.01381335
C       -6.84483523      -1.78980066      -5.43194991
C       -6.88190225      -0.40856009      -5.53815314
C       -7.79498968       0.04941956      -6.54002365
C       -8.38218098      -1.00183534      -7.19094604
Br      -9.60467326      -0.79753544      -8.59538757
S       -7.88493574      -2.50793914      -6.61186416
H       -0.36292584      -2.44532663      -3.32018626
H       -2.55926713      -3.77103973      -4.27258816
H       -5.31660701      -3.28314928      -1.44333614
H       -5.05005149      -4.29010872      -2.85271952
H       -6.13177428      -1.20494128      -1.52200887
H       -7.12666040      -0.76127345      -2.91129592
H       -5.38500766      -0.33769381      -2.88691327
H       -6.27865075       0.26322371      -4.94111989
H       -7.98028549       1.09063709      -6.77194695
C       -1.77693886       1.77693886       1.77693886
C       -2.73174825       2.65829987       1.32256918
C       -3.30102848       3.25504468       2.47411856
C       -2.65982186       2.69357787       3.55913809
O       -1.72490520       1.79437827       3.13597571
C       -2.80657781       2.86376147       5.02725968
N       -1.94282413       3.94404924       5.50058941
C       -0.53607701       3.61563550       5.67593037
C       -2.51052032       5.22344809       5.61668735
O       -3.71510171       5.36605289       5.38980027
C       -1.68349783       6.35982465       6.02326332
C       -0.37060182       6.70871625       5.74929741
C        0.01668119       7.94435968       6.35791529
C       -1.03042056       8.51260209       7.03193972
Br      -0.91857548      10.15692290       7.92209789
S       -2.44332362       7.59012503       6.97129040
H       -2.98997644       2.84791062       0.29055167
H       -4.08638719       3.99805153       2.51845629
H       -2.54348713       1.94187124       5.55773405
H       -3.85557079       3.06745620       5.26985273
H       -0.41965989       2.54889904       5.89016550
H       -0.11369195       4.17204595       6.51349187
H       -0.00226280       3.85459134       4.75276060
H        0.29727279       6.12330057       5.13051916
H        1.00157116       8.38665206       6.27651445
C        1.77693886      -1.77693886       1.77693886
C        2.92015147      -2.42515294       1.36731289
C        3.41110315      -3.11830363       2.50078494
C        2.53739892      -2.84268779       3.53245112
O        1.53556991      -2.02793726       3.09175201
C        2.49991581      -3.23259536       4.96508780
N        1.76988381      -4.48849855       5.12908042
C        0.31764483      -4.39760953       5.11238853
C        2.52053443      -5.67529246       5.15482888
O        3.75188840      -5.60508541       5.11398105
C        1.84519575      -6.96956078       5.25182927
C        0.66141801      -7.45122792       4.71596956
C        0.40290123      -8.81341868       5.06927386
C        1.42329028      -9.33111356       5.82055853
Br       1.46155581     -11.09975733       6.43628313
S        2.65666024      -8.21979075       6.12828806
H        3.35065376      -2.40132742       0.37645755
H        4.29491260      -3.73880020       2.56918221
H        2.01399903      -2.45903456       5.57005883
H        3.52280389      -3.32241589       5.34765995
H       -0.00428704      -3.40911986       5.45389162
H       -0.12095808      -5.14026003       5.77992782
H       -0.03189652      -4.55285154       4.08865971
H        0.00030002      -6.87199118       4.08425573
H       -0.47269815      -9.37161430       4.76267919
C       -0.00445707       0.01189536      -1.78238275
H       -0.66409135       0.67374010      -2.43557963
H        0.65740317      -0.63156657      -2.45157240
C       -0.90989263      -0.90692880      -0.91072765
C        0.90977584       0.90977584      -0.90977584
C       -0.00465871       1.77757030       0.00794375
H       -0.66225468       2.44313916      -0.64384735
H        0.64322798       2.43503045       0.67728295
C       -1.78241447       0.00034974      -0.00472694
H       -2.45427497      -0.65498947       0.64260836
H       -2.43311707       0.67328779      -0.65473579
C       -0.91132561       0.90220522       0.91563759
C       -0.01476271      -0.02253852       1.78660255
H       -0.67934791      -0.69751639       2.42135241
H        0.63392994       0.61504881       2.47327442
C        0.01484550      -1.77751727      -0.01636693
H        0.67870853      -2.42144646      -0.68295456
H       -0.62264859      -2.45592969       0.64226336
C        1.78714474       0.01002794       0.00389507
H        2.44202412       0.67113390       0.66197326
H        2.45385902      -0.65136977      -0.64189061
C        0.91606151      -0.90478549       0.90901405
