101
Properties=species:S:1:pos:R:3 pbc="F F F"
C        0.00000000       0.00000000       0.00000000
C        0.86703484       0.86703484      -0.86703484
C        0.73636851       1.01743917      -2.22909756
C        1.75246892       1.92004218      -2.62796855
C        2.43493971       2.26757337      -1.48031268
O        1.89953879       1.62182034      -0.40418797
C        3.57281301       3.18349281      -1.21158107
N        4.84094046       2.46904259      -1.34776767
C        5.23833745       1.63920263      -0.22039073
C        5.49302680       2.53812246      -2.58979443
O        5.01448565       3.24898899      -3.47776816
C        6.73272352       1.79322350      -2.81092670
C        7.16524203       0.54679794      -2.38686343
C        8.46870045       0.21341734      -2.87376391
C        8.95833295       1.19803639      -3.68888096
Br      10.62007501       1.10003850      -4.54777069
S        7.90834613       2.50958892      -3.85709193
H       -0.00007019       0.53960142      -2.85919542
H        1.96483482       2.28362349      -3.62472462
H        3.50936888       3.60273388      -0.20127758
H        3.52839977       4.03527836      -1.89948952
H        4.80778893       2.02845643       0.70723299
H        6.32330670       1.63694000      -0.10927100
H        4.87085283       0.62336215      -0.38568769
H        6.58215940      -0.11922226      -1.76389771
H        8.99112093      -0.70778320      -2.64854555
C       -0.86703484      -0.86703484      -0.86703484
C       -0.43293610      -1.60509805      -1.94487109
C       -1.57564519      -2.26433593      -2.46049853
C       -2.63418533      -1.89005524      -1.65858518
O       -2.20511758      -1.03260144      -0.68782808
C       -4.07598202      -2.24633283      -1.64557204
N       -4.83187728      -1.32912951      -2.49674393
C       -5.14481087      -0.02805615      -1.92506379
C       -5.07285649      -1.72572698      -3.82236023
O       -4.70757976      -2.84662555      -4.18703749
C       -5.76747194      -0.82591622      -4.74348556
C       -5.73741545       0.54941845      -4.91090641
C       -6.58466558       1.00069640      -5.97191251
C       -7.19008397      -0.05253078      -6.60263555
Br      -8.34018901       0.14074544      -8.06844063
S       -6.78696597      -1.55100779      -5.93705322
H        0.58074160      -1.66506234      -2.31440592
H       -1.63004205      -2.93623349      -3.30690740
H       -4.48230427      -2.20208957      -0.62898651
H       -4.20083663      -3.28233544      -1.97999558
H       -5.19849858      -0.09624952      -0.83426426
H       -6.11127538       0.32676496      -2.28500728
H       -4.35493744       0.67527659      -2.20024181
H       -5.13079607       1.22078676      -4.31682555
H       -6.71248408       2.03740172      -6.25680092
C       -0.86703484       0.86703484       0.86703484
C       -1.75836375       1.81232841       0.41221307
C       -2.35400447       2.38266265       1.56381252
C       -1.79102375       1.74290128       2.64890072
O       -0.87875123       0.82046463       2.22633125
C       -1.99936101       1.85323401       4.11529188
N       -1.11101332       2.86883008       4.67790732
C        0.26953396       2.46649791       4.90096685
C       -1.62509150       4.16713650       4.82871569
O       -2.80987316       4.37680802       4.55456161
C       -0.76769306       5.24346312       5.32571754
C        0.57115756       5.54176329       5.12829767
C        0.98467634       6.72884621       5.81171183
C       -0.06641060       7.31500242       6.46383728
Br       0.07741092       8.91020007       7.43509505
S       -1.51514877       6.46423459       6.29564361
H       -1.95853106       2.06047882      -0.62028322
H       -3.10615054       3.15929665       1.60773575
H       -1.80370563       0.89684620       4.61282852
H       -3.04838056       2.09524111       4.31954598
H        0.32726773       1.38684053       5.06943957
H        0.67648608       2.96378297       5.78222080
H        0.85677915       2.72141313       4.01526869
H        1.24043649       4.95394838       4.51332297
H        1.99132430       7.12718118       5.79602639
C        0.86703484      -0.86703484       0.86703484
C        1.99453426      -1.53793197       0.45043900
C        2.49202566      -2.22169762       1.58675636
C        1.63773691      -1.91825111       2.62683773
O        0.64146666      -1.09530213       2.18877832
C        1.61572954      -2.28669278       4.06546456
N        0.87001398      -3.52917160       4.25856514
C       -0.58083825      -3.41711895       4.26165011
C        1.60362853      -4.72641135       4.29090382
O        2.83513641      -4.67498020       4.23112618
C        0.91104837      -6.00902798       4.41679737
C       -0.28738427      -6.48091766       3.90537002
C       -0.56043807      -7.83386538       4.28245439
C        0.46328943      -8.35558064       5.02638023
Br       0.48491646     -10.11545743       5.66751031
S        1.71709251      -7.25821886       5.29971560
H        2.41067186      -1.53486917      -0.54681437
H        3.36763314      -2.85410603       1.65144376
H        1.15008941      -1.49733319       4.66595775
H        2.64273658      -2.38602312       4.43440795
H       -0.88329090      -2.41912655       4.59317670
H       -1.02029588      -4.14343372       4.94637986
H       -0.94766540      -3.58205473       3.24551333
H       -0.94925892      -5.90123585       3.27485793
H       -1.44848863      -8.38348057       3.99689133
