130
Properties=species:S:1:pos:R:3 pbc="F F F"
C        1.77693886       1.77693886      -1.77693886
C        1.64627253       1.92734319      -3.13900158
C        2.66237294       2.82994620      -3.53787257
C        3.34484373       3.17747739      -2.39021670
O        2.80944282       2.53172436      -1.31409200
C        4.48271703       4.09339684      -2.12148510
N        5.75084448       3.37894661      -2.25767169
C        6.14824148       2.54910666      -1.13029475
C        6.40293082       3.44802649      -3.49969846
O        5.92438967       4.15889301      -4.38767218
C        7.64262755       2.70312753      -3.72083072
C        8.07514606       1.45670196      -3.29676746
C        9.37860447       1.12332137      -3.78366794
C        9.86823697       2.10794041      -4.59878498
S        8.81825015       3.41949294      -4.76699595
H        0.90983384       1.44950545      -3.76909944
H        2.87473885       3.19352752      -4.53462865
H        4.41927291       4.51263790      -1.11118161
H        4.43830379       4.94518239      -2.80939355
H        5.71769295       2.93836045      -0.20267103
H        7.23321073       2.54684402      -1.01917503
H        5.78075685       1.53326618      -1.29559171
H        7.49206343       0.79068177      -2.67380174
H        9.90102495       0.20212083      -3.55844957
C       11.14571698       2.03260361      -5.25906463
C       12.21560648       1.96950903      -5.81204883
Br      13.94552731       1.86749043      -6.70617752
C       -1.77693886      -1.77693886      -1.77693886
C       -1.36472082      -2.43339199      -2.91450450
C       -2.49821561      -3.12647039      -3.40550572
C       -3.52933744      -2.85258480      -2.53061559
O       -3.09286682      -2.02439380      -1.53799856
C       -4.94788705      -3.28726889      -2.46244303
N       -5.79561656      -2.36987703      -3.22196920
C       -6.14380845      -1.11918494      -2.56464949
C       -6.08777503      -2.70987215      -4.55300859
O       -5.68541228      -3.78876004      -4.99678255
C       -6.87731843      -1.80285467      -5.38641269
C       -6.92770374      -0.42110997      -5.47980176
C       -7.85386408       0.03755346      -6.46928315
C       -8.43747754      -1.01309353      -7.12439130
S       -7.92156317      -2.51976783      -6.56340804
H       -0.37099492      -2.41869068      -3.33875313
H       -2.56389451      -3.75560747      -4.28339304
H       -5.29982750      -3.31797961      -1.42528531
H       -5.03700917      -4.30983637      -2.84603419
H       -6.13423943      -1.24659716      -1.47788784
H       -7.14556246      -0.79951571      -2.85415160
H       -5.40762137      -0.36045987      -2.84153350
H       -6.32512177       0.25072394      -4.88214910
H       -8.05055833       1.07908917      -6.69012618
C       -9.38836024      -0.85487281      -8.19415215
C      -10.18472451      -0.72236296      -9.09007686
Br     -11.47237818      -0.50810573     -10.53871135
C       -1.77693886       1.77693886       1.77693886
C       -2.68913537       2.70186540       1.32161653
C       -3.27611215       3.28061188       2.47346768
C       -2.68742161       2.66578793       3.55932829
O       -1.76770101       1.75075827       3.13679990
C       -2.87553759       2.79516552       5.02689586
N       -1.99436621       3.83227239       5.56082419
C       -0.60472377       3.45396767       5.76895144
C       -2.52571364       5.12490921       5.70003292
O       -3.71748245       5.31274013       5.44073228
C       -1.67738018       6.22127980       6.16792581
C       -0.34628238       6.53647051       5.94586259
C        0.05937340       7.73977933       6.60518784
C       -0.99062615       8.32000767       7.26432855
S       -2.42867899       7.44530858       7.13075148
H       -2.90838939       2.93136614       0.28868320
H       -4.03917784       4.04653147       2.51718570
H       -2.65805388       1.84943071       5.53560784
H       -3.92493768       3.02458090       5.24336114
H       -0.52816823       2.37796093       5.95259528
H       -0.19225595       3.97052772       6.63644610
H       -0.03465833       3.70418031       4.87077611
H        0.32257364       5.94945836       5.32966220
H        1.05953780       8.15278194       6.56835121
C       -0.88750795       9.55899181       7.99088544
C       -0.80114645      10.59664104       8.59937684
Br      -0.66150722      12.27443207       9.58325597
C        1.77693886      -1.77693886       1.77693886
C        2.87159437      -2.49296808       1.34805486
C        3.38275027      -3.15806387       2.48937757
C        2.56902661      -2.79925525       3.54425598
O        1.58439073      -1.95998328       3.11088517
C        2.57928948      -3.12504019       4.99326930
N        1.80398264      -4.33859844       5.24488171
C        0.35772430      -4.18326254       5.28665604
C        2.50323978      -5.55575507       5.29166092
O        3.73338855      -5.54284635       5.19471997
C        1.77785411      -6.81294907       5.47578261
C        0.55152630      -7.26348892       5.01360025
C        0.25076139      -8.59619332       5.43863906
C        1.28068489      -9.12644963       6.16782785
S        2.57335277      -8.05952924       6.37185703
H        3.25770440      -2.53121810       0.33951623
H        4.24120755      -3.81417747       2.54750999
H        2.15483996      -2.30507166       5.58318080
H        3.61353862      -3.24423925       5.33510186
H        0.09434030      -3.16750371       5.59688043
H       -0.08196546      -4.87599759       6.00519765
H       -0.04388383      -4.36655064       4.28694793
H       -0.11179391      -6.68282733       4.38551351
H       -0.66096545      -9.12710873       5.19545207
C        1.27280484     -10.46441707       6.70016329
C        1.26620530     -11.58496481       7.14599423
Br       1.25553440     -13.39679572       7.86686514
C       -0.00445707       0.01189536      -1.78238275
H       -0.66409135       0.67374010      -2.43557963
H        0.65740317      -0.63156657      -2.45157240
C       -0.90989263      -0.90692880      -0.91072765
C        0.90977584       0.90977584      -0.90977584
C       -0.00465871       1.77757030       0.00794375
H       -0.66225468       2.44313916      -0.64384735
H        0.64322798       2.43503045       0.67728295
C       -1.78241447       0.00034974      -0.00472694
H       -2.45427497      -0.65498947       0.64260836
H       -2.43311707       0.67328779      -0.65473579
C       -0.91132561       0.90220522       0.91563759
C       -0.01476271      -0.02253852       1.78660255
H       -0.67934791      -0.69751639       2.42135241
H        0.63392994       0.61504881       2.47327442
C        0.01484550      -1.77751727      -0.01636693
H        0.67870853      -2.42144646      -0.68295456
H       -0.62264859      -2.45592969       0.64226336
C        1.78714474       0.01002794       0.00389507
H        2.44202412       0.67113390       0.66197326
H        2.45385902      -0.65136977      -0.64189061
C        0.91606151      -0.90478549       0.90901405
