138
Properties=species:S:1:pos:R:3 pbc="F F F"
C        2.41673427      -1.42726769      -8.00074560
C        3.79321102      -0.81388780      -7.73369318
H        4.35694968      -1.50301895      -7.09212335
C        4.55256918      -0.62705416      -9.05574711
C        5.96829135      -0.10126720      -8.85952345
N        3.66849204       0.45323445      -7.01984825
C        3.35349610       0.47518892      -5.67707843
O        3.17777544      -0.54097467      -5.01808941
N        3.31408717       1.76615359      -5.20181966
C        2.94044439       2.16409411      -3.89606299
C        2.13752855       1.36283321      -3.07566131
C        1.79240587       1.79240587      -1.79240587
C        2.23772453       3.02010646      -1.30849485
C        3.02329747       3.83603145      -2.12167131
C        3.36285908       3.41511165      -3.41164778
Br       4.43677011       4.57617988      -4.46835219
H        1.79869488      -0.76028570      -8.61162079
H        1.87441091      -1.61406684      -7.06812511
H        2.51216637      -2.38362311      -8.52551642
H        4.00672995       0.06166363      -9.71225227
H        4.61063892      -1.58988285      -9.57811928
H        5.96328968       0.91120512      -8.44397838
H        6.49099741      -0.06417388      -9.82075513
H        6.53968620      -0.74876447      -8.18714876
H        3.34885910       1.24969140      -7.55082859
H        3.86656994       2.43179078      -5.72615368
H        1.76059161       0.40633502      -3.42745766
H        1.97621233       3.34906361      -0.30594386
H        3.36763699       4.79410334      -1.74026678
C       -6.67469092       2.35345779      -4.66897905
C       -7.40316649       1.04474595      -4.35459586
H       -7.71315252       1.06925775      -3.30215930
C       -8.65075066       0.90992614      -5.24043760
C       -9.47612998      -0.32940498      -4.92101265
N       -6.51413338      -0.10001516      -4.52742619
C       -5.53381643      -0.37512680      -3.59682022
O       -5.36436797       0.29911453      -2.58963674
N       -4.83289885      -1.50847885      -3.94068272
C       -3.70698857      -2.03203406      -3.26157886
C       -2.89405612      -1.23599008      -2.44597687
C       -1.79240587      -1.79240587      -1.79240587
C       -1.48357219      -3.14239017      -1.94036348
C       -2.27442637      -3.94272405      -2.76384980
C       -3.37263897      -3.38786573      -3.42911381
Br      -4.40936950      -4.53498310      -4.53694959
H       -6.31294149       2.36581074      -5.70289922
H       -5.80701101       2.49489883      -4.01635699
H       -7.33909885       3.21228291      -4.52724374
H       -8.36290611       0.88079452      -6.29853426
H       -9.28689959       1.79328682      -5.10526257
H       -8.92331305      -1.24599902      -5.14916110
H      -10.39192098      -0.33476000      -5.52089769
H       -9.76204818      -0.35123258      -3.86478972
H       -6.29949065      -0.37568761      -5.47420082
H       -5.33395854      -2.15785996      -4.53269591
H       -3.09768604      -0.17600424      -2.32069401
H       -0.63133129      -3.57633222      -1.42355629
H       -2.02890437      -4.99570383      -2.87739891
C       -1.01107936       8.40737503      -0.42824221
C       -1.10635499       8.51094991       1.09571150
H       -0.11029077       8.32060160       1.51516170
C       -1.55840452       9.92190242       1.50095518
C       -1.59094962      10.12580578       3.00979221
N       -2.01232873       7.49894503       1.63030098
C       -1.62452515       6.17723708       1.70400121
O       -0.52091326       5.78666948       1.34730744
N       -2.61663181       5.40358033       2.26184828
C       -2.59386391       3.99632218       2.41041540
C       -1.78606122       3.17733417       1.61262767
C       -1.79240587       1.79240587       1.79240587
C       -2.59931078       1.20389478       2.76312029
C       -3.42209025       2.00630809       3.55260189
C       -3.42737366       3.39298493       3.36925992
Br      -4.57299484       4.42894495       4.47936240
H       -1.99020366       8.55622091      -0.89639460
H       -0.64470230       7.42385659      -0.74008972
H       -0.32186425       9.15912948      -0.82693405
H       -2.55490510      10.13223779       1.09350296
H       -0.87219425      10.65958074       1.06710035
H       -2.34674056       9.49017776       3.48155485
H       -1.83888694      11.16652287       3.24216885
H       -0.61893445       9.89991047       3.45922557
H       -3.00096532       7.65146769       1.49694607
H       -3.26009879       5.90159433       2.86282128
H       -1.15598264       3.60235962       0.83604202
H       -2.59621821       0.12658787       2.90841372
H       -4.05123142       1.54251582       4.30825987
C        1.04884927      -8.40108328      -0.45972036
C        1.13807498      -8.51076946       1.06417197
H        0.13942801      -8.32646162       1.48016444
C        1.59442578      -9.92150428       1.46533206
C        1.62141566     -10.13171965       2.97341230
N        2.03742608      -7.49721085       1.60693780
C        1.64366177      -6.17749410       1.68460757
O        0.53991859      -5.79010861       1.32486299
N        2.63006474      -5.40201189       2.24998379
C        2.60064461      -3.99551189       2.40444500
C        1.79275141      -3.17656692       1.60670473
C        1.79240587      -1.79240587       1.79240587
C        2.59264386      -1.20462093       2.76906105
C        3.41547804      -2.00689218       3.55863001
C        3.42747409      -3.39273696       3.36940746
Br       4.57277746      -4.42854704       4.47997769
H        2.03058654      -8.54375327      -0.92430983
H        0.67960001      -7.41780934      -0.76894017
H        0.36456072      -9.15405424      -0.86455528
H        2.59354349     -10.12584828       1.06125408
H        0.91323158     -10.66023615       1.02540760
H        2.37246434      -9.49490200       3.45110683
H        1.87281053     -11.17235573       3.20241239
H        0.64653754      -9.91189128       3.41964167
H        3.02726513      -7.64494921       1.47716475
H        3.27309052      -5.89984677       2.85157712
H        1.16781029      -3.60094644       0.82562756
H        2.58432407      -0.12796835       2.91892738
H        4.03940507      -1.54366102       4.31894102
C       -0.00445707       0.01189536      -1.78238275
H       -0.66409135       0.67374010      -2.43557963
H        0.65740317      -0.63156657      -2.45157240
C       -0.90989263      -0.90692880      -0.91072765
C        0.90977584       0.90977584      -0.90977584
C       -0.00465871       1.77757030       0.00794375
H       -0.66225468       2.44313916      -0.64384735
H        0.64322798       2.43503045       0.67728295
C       -1.78241447       0.00034974      -0.00472694
H       -2.45427497      -0.65498947       0.64260836
H       -2.43311707       0.67328779      -0.65473579
C       -0.91132561       0.90220522       0.91563759
C       -0.01476271      -0.02253852       1.78660255
H       -0.67934791      -0.69751639       2.42135241
H        0.63392994       0.61504881       2.47327442
C        0.01484550      -1.77751727      -0.01636693
H        0.67870853      -2.42144646      -0.68295456
H       -0.62264859      -2.45592969       0.64226336
C        1.78714474       0.01002794       0.00389507
H        2.44202412       0.67113390       0.66197326
H        2.45385902      -0.65136977      -0.64189061
C        0.91606151      -0.90478549       0.90901405
