146
Properties=species:S:1:pos:R:3 pbc="F F F"
C        2.41673427      -1.42726769      -8.00074560
C        3.79321102      -0.81388780      -7.73369318
H        4.35694968      -1.50301895      -7.09212335
C        4.55256918      -0.62705416      -9.05574711
C        5.96829135      -0.10126720      -8.85952345
N        3.66849204       0.45323445      -7.01984825
C        3.35349610       0.47518892      -5.67707843
O        3.17777544      -0.54097467      -5.01808941
N        3.31408717       1.76615359      -5.20181966
C        2.94044439       2.16409411      -3.89606299
C        2.13752855       1.36283321      -3.07566131
C        1.79240587       1.79240587      -1.79240587
C        2.23772453       3.02010646      -1.30849485
C        3.02329747       3.83603145      -2.12167131
C        3.36285908       3.41511165      -3.41164778
H        1.79869488      -0.76028570      -8.61162079
H        1.87441091      -1.61406684      -7.06812511
H        2.51216637      -2.38362311      -8.52551642
H        4.00672995       0.06166363      -9.71225227
H        4.61063892      -1.58988285      -9.57811928
H        5.96328968       0.91120512      -8.44397838
H        6.49099741      -0.06417388      -9.82075513
H        6.53968620      -0.74876447      -8.18714876
H        3.34885910       1.24969140      -7.55082859
H        3.86656994       2.43179078      -5.72615368
H        1.76059161       0.40633502      -3.42745766
H        1.97621233       3.34906361      -0.30594386
H        3.36763699       4.79410334      -1.74026678
C        4.17587154       4.29410713      -4.21163384
C        4.85676948       5.03026584      -4.88162216
Br       5.95772385       6.22057222      -5.96493661
C       -3.60508237      -7.40389155       2.01876173
C       -3.37450522      -7.94399036       0.60547918
H       -2.29961247      -8.12543174       0.47899014
C       -4.13072449      -9.26762082       0.41708318
C       -3.87636622      -9.91020381      -0.93997758
N       -3.77896943      -6.96436040      -0.39824491
C       -2.99932395      -5.85496324      -0.65147625
O       -1.94220910      -5.63865908      -0.07402201
N       -3.55094917      -5.08285448      -1.64825677
C       -3.06516376      -3.83342203      -2.10201569
C       -2.25163651      -3.01834999      -1.30603657
C       -1.79240587      -1.79240587      -1.79240587
C       -2.13467994      -1.36024954      -3.07139637
C       -2.95888140      -2.15402462      -3.86809421
C       -3.43020905      -3.37782090      -3.38158855
H       -4.66282021      -7.17309883       2.18588907
H       -3.03733456      -6.48404061       2.19290599
H       -3.29000511      -8.13484284       2.77078827
H       -5.20937832      -9.10821582       0.53694829
H       -3.82219869      -9.97411751       1.19744086
H       -4.27168819      -9.29359409      -1.75319089
H       -4.37045993     -10.88580620      -0.99131254
H       -2.80592295     -10.06245092      -1.10969662
H       -4.76966476      -6.83722150      -0.54249282
H       -4.15967711      -5.57893907      -2.28589823
H       -1.97808092      -3.31822252      -0.29808085
H       -1.76878499      -0.41012533      -3.45230948
H       -3.22451921      -1.81214844      -4.86533946
C       -4.27828811      -4.16019458      -4.24312982
C       -4.98855431      -4.81543254      -4.96467063
Br      -6.13699469      -5.87489689      -6.13134109
C       -7.03212381       4.18230873      -2.22422036
C       -6.66851482       5.35487641      -1.31037482
H       -5.81647922       5.88461499      -1.75504014
C       -7.85565922       6.32301118      -1.19740828
C       -7.53622855       7.56232650      -0.37200745
N       -6.25555151       4.87950382       0.00651941
C       -5.01641227       4.30130280       0.18804837
O       -4.20492524       4.16830054      -0.71833559
N       -4.82432063       3.95236258       1.50537721
C       -3.70642451       3.26234687       2.03183011
C       -2.88696446       2.45563266       1.23342594
C       -1.79240587       1.79240587       1.79240587
C       -1.49843048       1.92013287       3.14776250
C       -2.31676121       2.70620791       3.95803111
C       -3.42047702       3.36397890       3.40516259
H       -7.85912061       3.59766631      -1.80675694
H       -6.18470084       3.50210541      -2.35833707
H       -7.33007563       4.53952950      -3.21554544
H       -8.71904411       5.81362703      -0.75202529
H       -8.15621882       6.64476491      -2.20210839
H       -7.33993616       7.30504142       0.67349558
H       -8.38437852       8.25430962      -0.39110948
H       -6.66157084       8.08631030      -0.76981065
H       -6.98178123       4.54521363       0.62238422
H       -5.37242895       4.48031570       2.17176975
H       -3.09665808       2.32209366       0.17563255
H       -0.64060774       1.41092575       3.57968632
H       -2.08423927       2.80205650       5.01571134
C       -4.23420859       4.16337001       4.28403390
C       -4.91570878       4.83286007       5.02008862
Br      -6.01763695       5.91536887       6.21022685
C        0.38347865      -0.13775512       8.46897842
C        1.89322424      -0.38607896       8.43371320
H        2.38447920       0.53579927       8.09737415
C        2.40222686      -0.73995989       9.83907538
C        3.91391228      -0.91484453       9.89779080
N        2.22519247      -1.43833130       7.47805097
C        2.19344228      -1.19092726       6.12139390
O        1.90564089      -0.09850048       5.65074881
N        2.56572479      -2.30775842       5.40857721
C        2.56338516      -2.43790245       3.99931388
C        1.76428703      -1.63226458       3.17947146
C        1.79240587      -1.79240587       1.79240587
C        2.61111650      -2.75247338       1.20273596
C        3.39875685      -3.57364495       2.00859843
C        3.36617090      -3.42445521       3.39899241
H       -0.15878790      -1.04165846       8.76715942
H        0.00459482       0.16281325       7.48668760
H        0.13689372       0.66011966       9.17728563
H        1.92495308      -1.66162080      10.19407197
H        2.11904294       0.05736145      10.53719385
H        4.23883544      -1.77518227       9.30445546
H        4.23182780      -1.08411183      10.93163904
H        4.42866978      -0.02344233       9.52595838
H        2.01365655      -2.38734360       7.74837893
H        3.15148315      -2.96077554       5.91225571
H        1.10287410      -0.88393759       3.60757260
H        2.63915937      -2.86968754       0.12237289
H        4.03537957      -4.32255575       1.54407179
C        4.19792621      -4.29692346       4.18676284
C        4.89452128      -5.02761562       4.84652058
Br       6.02085659      -6.20908305       5.91329304
C       -0.00445707       0.01189536      -1.78238275
H       -0.66409135       0.67374010      -2.43557963
H        0.65740317      -0.63156657      -2.45157240
C       -0.90989263      -0.90692880      -0.91072765
C        0.90977584       0.90977584      -0.90977584
C       -0.00465871       1.77757030       0.00794375
H       -0.66225468       2.44313916      -0.64384735
H        0.64322798       2.43503045       0.67728295
C       -1.78241447       0.00034974      -0.00472694
H       -2.45427497      -0.65498947       0.64260836
H       -2.43311707       0.67328779      -0.65473579
C       -0.91132561       0.90220522       0.91563759
C       -0.01476271      -0.02253852       1.78660255
H       -0.67934791      -0.69751639       2.42135241
H        0.63392994       0.61504881       2.47327442
C        0.01484550      -1.77751727      -0.01636693
H        0.67870853      -2.42144646      -0.68295456
H       -0.62264859      -2.45592969       0.64226336
C        1.78714474       0.01002794       0.00389507
H        2.44202412       0.67113390       0.66197326
H        2.45385902      -0.65136977      -0.64189061
C        0.91606151      -0.90478549       0.90901405
