170
Properties=species:S:1:pos:R:3 pbc="F F F"
C        1.78152403       1.78152403      -1.78152403
S        1.45312818       2.07959937      -3.41187470
C        2.84140037       3.06998059      -3.55148678
C        3.58249097       3.13729868      -2.38134735
C        2.91381068       2.41701304      -1.32864236
C        4.81192641       3.93510862      -2.30551023
O        4.92916549       4.93774448      -3.00993411
N        5.83629911       3.53558347      -1.42603572
C        6.12994630       2.11913191      -1.23520107
C        7.01479205       4.41370908      -1.36947722
C        6.73414287       5.82852086      -0.82573272
N        7.93871316       6.66395176      -0.71150929
C        8.54904529       7.07738405      -1.97189929
C        8.62002617       6.64779376       0.50948490
O        8.35426804       5.82305494       1.38210536
C        9.66104731       7.65337698       0.75334376
C        9.61195707       8.97734663       0.34544301
S       10.98906575       9.87610520       0.82903737
C       11.61931388       8.54383559       1.65810982
C       10.82886335       7.42688150       1.56552778
H        3.06328347       3.55423940      -4.49469864
H        3.25721173       2.36840025      -0.30474743
H        5.23840132       1.51885215      -1.06698832
H        6.78740079       1.99365422      -0.37037343
H        6.62670310       1.74491349      -2.13593510
H        7.43685006       4.46383598      -2.38021449
H        7.77031546       3.94400022      -0.72864994
H        6.25905444       5.74502457       0.15935225
H        6.02875034       6.37918117      -1.45532143
H        8.94633211       6.18889565      -2.47161540
H        9.38357140       7.76500742      -1.84498774
H        7.78892618       7.54355381      -2.60367900
H        8.83263275       9.46932822      -0.22123143
H       11.05350063       6.48026745       2.04510009
C       12.85594551       8.58643026       2.39467476
C       13.89162449       8.62210329       3.01154790
Br      15.56622982       8.67978357       4.00897959
C       -1.78152403      -1.78152403      -1.78152403
S       -3.46420209      -1.83998796      -1.64041219
C       -3.57084401      -2.98134225      -2.91068148
C       -2.33318859      -3.35782158      -3.41012683
C       -1.28897865      -2.59863642      -2.77185101
C       -2.21875353      -4.33237460      -4.50141712
O       -3.12256427      -4.42200180      -5.33227801
N       -1.07380534      -5.14847514      -4.57563782
C       -0.46050595      -5.66652408      -3.35724925
C       -1.00917531      -6.06356094      -5.72524210
C       -0.92703254      -5.36466074      -7.09670317
N       -0.79144343      -6.29792679      -8.22480399
C       -1.96259963      -7.11996795      -8.51576105
C        0.50382049      -6.62185597      -8.64029955
O        1.48873989      -6.31134318      -7.97261434
C        0.68312056      -7.33181920      -9.91238189
C       -0.06007225      -7.12045916     -11.06332928
S        0.44248254      -8.10603909     -12.37257703
C        1.70442914      -8.75593555     -11.45353324
C        1.74860780      -8.26521986     -10.17360501
H       -4.54166606      -3.33917174      -3.23138370
H       -0.24048370      -2.66266912      -3.02720659
H       -0.32739575      -4.90550687      -2.59133916
H        0.52295066      -6.08425815      -3.59012095
H       -1.10865115      -6.44893058      -2.94996997
H       -1.88811694      -6.71719085      -5.67559274
H       -0.12600456      -6.70356257      -5.61339848
H       -0.07439573      -4.67467347      -7.09565756
H       -1.81061003      -4.75228570      -7.30035722
H       -2.11783756      -7.80887325      -7.68013234
H       -1.85229395      -7.73155167      -9.40972094
H       -2.83725705      -6.47398083      -8.62492111
H       -0.88411852      -6.43391413     -11.20515974
H        2.49611218      -8.54548863      -9.43929154
C        2.64194957      -9.71872177     -11.97092880
C        3.42712292     -10.52505522     -12.40424758
Br       4.69668182     -11.82882822     -13.10488740
C       -1.78152403       1.78152403       1.78152403
S       -1.94990080       1.54825389       3.44644755
C       -3.02113322       2.87722683       3.56450769
C       -3.29269059       3.46852081       2.33992560
C       -2.50930746       2.84611855       1.30404007
C       -4.19452626       4.62165995       2.23635904
O       -4.29115652       5.40339693       3.18229063
N       -4.93410689       4.81057049       1.05324092
C       -5.48281128       3.66289987       0.33856813
C       -5.77636907       6.01536699       1.00624229
C       -4.99651542       7.34436633       1.04751471
N       -5.85382045       8.53289332       0.92746043
C       -6.72739524       8.80573998       2.06519340
C       -6.07431596       9.04063593      -0.35661685
O       -5.74332124       8.41274768      -1.36085129
C       -6.69821305      10.36159975      -0.49873226
C       -6.46686363      11.45323783       0.32375923
S       -7.34368946      12.84643279      -0.15398867
C       -7.96733135      12.04214334      -1.50443504
C       -7.54881424      10.73943339      -1.59803055
H       -3.41826129       3.16301482       4.53094539
H       -2.49493131       3.16440919       0.27101892
H       -4.76015440       2.86111078       0.20297660
H       -5.82613566       3.97651765      -0.65122486
H       -6.32508690       3.26743510       0.91502969
H       -6.48386833       5.95528388       1.84174832
H       -6.36697633       5.99321547       0.08277381
H       -4.25727871       7.35022209       0.23722596
H       -4.42821470       7.45966106       1.97537719
H       -7.47108944       8.00592392       2.12982979
H       -7.27905580       9.73998624       1.97452453
H       -6.13046043       8.82534095       2.98035761
H       -5.82457492      11.50582915       1.19278832
H       -7.82475314      10.06740527      -2.40349042
C       -8.84033185      12.66972472      -2.46235557
C       -9.57146976      13.19532413      -3.26461401
Br     -10.75365793      14.04517392      -4.56179806
C        1.78152403      -1.78152403       1.78152403
S        3.45063012      -1.92924297       1.56472915
C        3.56600541      -3.01365380       2.88320854
C        2.33813006      -3.30496546       3.45804148
C        1.30052675      -2.52609098       2.83284835
C        2.23195478      -4.22047597       4.60011450
O        3.17034647      -4.31540512       5.39109249
N        1.05504483      -4.97488799       4.76798548
C        0.35894130      -5.51868883       3.60664915
C        1.00421592      -5.83078496       5.96297747
C        1.02249324      -5.06516438       7.30073883
N        0.89895917      -5.93671704       8.47849800
C        2.04318315      -6.80082957       8.75431590
C       -0.38805761      -6.17670176       8.96969089
O       -1.38898823      -5.84975789       8.33444796
C       -0.53765023      -6.81656756      10.28216320
C        0.27035108      -6.58829814      11.38521146
S       -0.21284191      -7.48549959      12.76347590
C       -1.54754897      -8.11490127      11.93768735
C       -1.63158295      -7.68315061      10.63864942
H        4.53358414      -3.40337833       3.17525903
H        0.26401503      -2.52642657       3.13991781
H        0.22413899      -4.78878917       2.81131363
H       -0.63037024      -5.87616167       3.90563702
H        0.94887351      -6.35026407       3.20841411
H        1.84804084      -6.52846872       5.90439097
H        0.08758104      -6.43110537       5.92427920
H        0.20412299      -4.33487791       7.30572585
H        1.94275513      -4.48812256       7.43237526
H        2.12465940      -7.53495385       7.94722990
H        1.94843686      -7.36366392       9.68146579
H        2.95147298      -6.19424452       8.79044149
H        1.13165526      -5.93722766      11.45430948
H       -2.42662121      -7.96042527       9.95486393
C       -2.50258658      -9.00508736      12.54520022
C       -3.30243058      -9.75061822      13.05399225
Br      -4.59571068     -10.95607855      13.87666593
C       -0.00445707       0.01189536      -1.78238275
H       -0.66409135       0.67374010      -2.43557963
H        0.65740317      -0.63156657      -2.45157240
C       -0.90989263      -0.90692880      -0.91072765
C        0.90977584       0.90977584      -0.90977584
C       -0.00465871       1.77757030       0.00794375
H       -0.66225468       2.44313916      -0.64384735
H        0.64322798       2.43503045       0.67728295
C       -1.78241447       0.00034974      -0.00472694
H       -2.45427497      -0.65498947       0.64260836
H       -2.43311707       0.67328779      -0.65473579
C       -0.91132561       0.90220522       0.91563759
C       -0.01476271      -0.02253852       1.78660255
H       -0.67934791      -0.69751639       2.42135241
H        0.63392994       0.61504881       2.47327442
C        0.01484550      -1.77751727      -0.01636693
H        0.67870853      -2.42144646      -0.68295456
H       -0.62264859      -2.45592969       0.64226336
C        1.78714474       0.01002794       0.00389507
H        2.44202412       0.67113390       0.66197326
H        2.45385902      -0.65136977      -0.64189061
C        0.91606151      -0.90478549       0.90901405
