149
Properties=species:S:1:pos:R:3 pbc="F F F"
C        0.00000000       0.00000000       0.00000000
C        0.87162000       0.87162000      -0.87162000
S        0.54322416       1.16969534      -2.50197067
C        1.93149634       2.16007657      -2.64158276
C        2.67258694       2.22739465      -1.47144333
C        2.00390665       1.50710901      -0.41873834
C        3.90202239       3.02520459      -1.39560620
O        4.01926146       4.02784046      -2.10003009
N        4.92639509       2.62567945      -0.51613169
C        5.22004228       1.20922788      -0.32529704
C        6.10488802       3.50380506      -0.45957319
C        5.82423885       4.91861683       0.08417130
N        7.02880913       5.75404774       0.19839474
C        7.63914126       6.16748003      -1.06199526
C        7.71012215       5.73788973       1.41938892
O        7.44436402       4.91315092       2.29200938
C        8.75114329       6.74347296       1.66324778
C        8.70205304       8.06744261       1.25534704
S       10.07916173       8.96620117       1.73894139
C       10.70940985       7.63393157       2.56801385
C        9.91895933       6.51697748       2.47543180
H        2.15337944       2.64433537      -3.58479462
H        2.34730771       1.45849622       0.60515659
H        4.32849730       0.60894812      -0.15708429
H        5.87749676       1.08375020       0.53953059
H        5.71679908       0.83500947      -1.22603108
H        6.52694604       3.55393195      -1.47031047
H        6.86041143       3.03409619       0.18125409
H        5.34915042       4.83512054       1.06925628
H        5.11884632       5.46927715      -0.54541741
H        8.03642808       5.27899162      -1.56171138
H        8.47366738       6.85510340      -0.93508371
H        6.87902216       6.63364978      -1.69377497
H        7.92272872       8.55942419       0.68867259
H       10.14359661       5.57036343       2.95500411
C       11.94604148       7.67652623       3.30457879
C       12.98172047       7.71219927       3.92145192
Br      14.65632580       7.76987954       4.91888361
C       -0.87162000      -0.87162000      -0.87162000
S       -2.55970720      -0.80288693      -0.85229603
C       -2.66278046      -2.02540453      -2.04497068
C       -1.42496347      -2.52268785      -2.42377361
C       -0.37386286      -1.79220929      -1.76368185
C       -1.30808277      -3.58125345      -3.43349696
O       -2.15640757      -3.66966627      -4.32105817
N       -0.22459437      -4.47785761      -3.36575425
C        0.26273366      -4.94507079      -2.07223008
C       -0.14880597      -5.47815353      -4.44130678
C        0.07974778      -4.89051355      -5.84791860
N        0.22328920      -5.91220578      -6.89554555
C       -0.98280118      -6.67061132      -7.21520405
C        1.51651639      -6.35495440      -7.19018495
O        2.47324089      -6.06454053      -6.47420592
C        1.73010505      -7.16822672      -8.39324679
C        1.08608820      -6.99211710      -9.60811971
S        1.60334002      -8.10470633     -10.80505520
C        2.74686724      -8.77021269      -9.75198212
C        2.73875870      -8.18993080      -8.50933291
H       -3.63300178      -2.33806841      -2.41143924
H        0.68211567      -1.94742822      -1.93533479
H        0.39875160      -4.14025278      -1.35302853
H        1.22615795      -5.44599169      -2.20188263
H       -0.46840513      -5.64831513      -1.66111937
H       -1.07523386      -6.06390997      -4.41204463
H        0.67447936      -6.16762668      -4.22010623
H        0.97920296      -4.26299897      -5.83121867
H       -0.73964495      -4.23532189      -6.15857404
H       -1.24626156      -7.28308927      -6.34778026
H       -0.85669352      -7.35312747      -8.05403351
H       -1.79735785      -5.97557304      -7.43351603
H        0.32715647      -6.26266072      -9.85797607
H        3.41076335      -8.46586680      -7.70385247
C        3.64375227      -9.83134373     -10.13039747
C        4.39489348     -10.72004097     -10.44732032
Br       5.60942529     -12.15698924     -10.95975777
C       -0.87162000       0.87162000       0.87162000
S       -1.11254222       0.58341747       2.51893049
C       -2.13749797       1.94737490       2.64828281
C       -2.33956365       2.59370336       1.43815792
C       -1.54048310       1.98043611       0.40883479
C       -3.19334946       3.78377341       1.34571032
O       -3.29728488       4.53302947       2.31681766
N       -3.87929042       4.04478494       0.14413087
C       -4.44224711       2.94640026      -0.63408017
C       -4.67385105       5.28204550       0.11236973
C       -3.84741033       6.57757186       0.23370219
N       -4.65478156       7.80187530       0.12780528
C       -5.56081302       8.06578382       1.24201971
C       -4.80666555       8.36501168      -1.14305426
O       -4.46074884       7.76251875      -2.15776204
C       -5.37520088       9.71338962      -1.25722203
C       -5.13537661      10.76404772      -0.38527571
S       -5.94087086      12.20674514      -0.84119450
C       -6.54143123      11.47771789      -2.24382155
C       -6.16822520      10.16422166      -2.37194185
H       -2.56068597       2.21220643       3.60961703
H       -1.47452919       2.33603242      -0.60991427
H       -3.74513954       2.12295008      -0.77355991
H       -4.73532044       3.30950600      -1.62311007
H       -5.32019126       2.56256552      -0.10491715
H       -5.41475095       5.21831285       0.91812466
H       -5.22886204       5.31692794      -0.83253643
H       -3.07780108       6.58499688      -0.54778327
H       -3.31138853       6.63639566       1.18575668
H       -6.33559826       7.29336253       1.24817030
H       -6.07354033       9.02330674       1.16700742
H       -4.99925823       8.02841875       2.17876993
H       -4.52553204      10.75958988       0.50835840
H       -6.43766785       9.53365908      -3.21237100
C       -7.35300564      12.17355947      -3.20857617
C       -8.03269920      12.75632679      -4.01655817
Br      -9.13170620      13.69861225      -5.32299673
C        0.87162000      -0.87162000       0.87162000
S        2.54965501      -0.96658060       0.69865456
C        2.65929040      -2.08464965       1.98921562
C        1.42473768      -2.42634061       2.52034663
C        0.38306494      -1.65906230       1.88762676
C        1.31307327      -3.37675933       3.63300058
O        2.23142801      -3.46814189       4.44756211
N        0.15402047      -4.16811731       3.74606845
C       -0.49365624      -4.69761616       2.55060729
C        0.09448005      -5.05894462       4.91484161
C        0.05361428      -4.33170959       6.27336051
N       -0.07764590      -5.23970968       7.42239835
C        1.08272191      -6.07919341       7.70670122
C       -1.37043483      -5.52936637       7.86969141
O       -2.36225117      -5.21235069       7.21540603
C       -1.53811106      -6.21044442       9.15903510
C       -0.76797423      -5.99144436      10.29067848
S       -1.26345102      -6.94081698      11.62905555
C       -2.55610801      -7.58321782      10.74821776
C       -2.61629013      -7.11697330       9.45982183
H        3.62912609      -2.45550240       2.29788094
H       -0.66115428      -1.69702225       2.16477936
H       -0.62711224      -3.94928758       1.77235437
H       -1.48026752      -5.09088434       2.81109956
H        0.13068323      -5.50071953       2.14643686
H        0.95922882      -5.73091966       4.86103998
H       -0.80316787      -5.68318104       4.83324037
H       -0.78514192      -3.62491573       6.27524087
H        0.95296686      -3.73329201       6.44728200
H        1.20759642      -6.78736882       6.88216584
H        0.97836392      -6.67074836       8.61474221
H        1.97192373      -5.44885589       7.78566730
H        0.07208896      -5.31890764      10.40248372
H       -3.38373618      -7.39657735       8.74611474
C       -3.50181102      -8.51665059      11.30314935
C       -4.29383729      -9.29840054      11.76790456
Br      -5.57447679     -10.56242409      12.51937443
