178
Properties=species:S:1:pos:R:3 pbc="F F F"
O        3.12341526       5.86686422      -1.99208175
C        4.20833962       5.45983000      -2.41287898
C        4.44644280       4.00316552      -2.76440594
N        3.27855656       3.15687658      -2.56649118
N        2.57022050       2.77705515      -3.65514211
C        1.62071439       1.96788384      -3.16827233
C        0.59791081       1.39046104      -4.07330135
C        1.78187865       1.78187865      -1.78187865
C        2.87269399       2.53251560      -1.40815638
C        3.51892703       2.73265701      -0.08795826
N        5.29281483       6.32888694      -2.59065296
C        6.63922567       5.89891267      -2.94601143
C        5.11133124       7.75439210      -2.29557152
C        5.44815685       8.13717218      -0.87039870
C        4.44254053       7.99785961       0.10706262
C        4.66559048       8.35464439       1.43789708
C        5.90518644       8.84990458       1.82430210
C        6.91768446       8.99210947       0.87742453
C        6.69294091       8.64536819      -0.46220055
H        5.25571206       3.59194350      -2.15483167
H        4.72008729       3.92824846      -3.82276071
H        0.67476225       0.29868524      -4.09183133
H        0.71795098       1.75347933      -5.09943183
H       -0.40803332       1.66281398      -3.73849360
H        4.60910854       2.76425306      -0.17086407
H        3.27731609       1.91511856       0.59864053
H        3.17751269       3.66842017       0.36509004
H        6.66146678       4.89520978      -3.37097950
H        7.25770778       5.90305379      -2.04498611
H        7.05225414       6.58538910      -3.69058997
H        4.06685327       8.03062630      -2.49256531
H        5.68613820       8.33970650      -3.02104323
H        3.45921140       7.61847599      -0.17265779
H        3.86633323       8.24999968       2.16729856
H        6.08122171       9.13194796       2.85897909
H        7.88080206       9.38737847       1.19297511
C        7.78647589       8.86652653      -1.37262365
C        8.70231144       9.05174665      -2.13510299
Br      10.18314007       9.35123191      -3.36796761
O       -3.53199982      -1.73580354      -5.71455787
C       -3.34737457      -2.95290572      -5.78076831
C       -2.85379347      -3.76337010      -4.59685070
N       -2.63643014      -2.96925484      -3.39623934
N       -3.55901215      -3.03493816      -2.40846745
C       -3.05651526      -2.26768889      -1.43266640
C       -3.82860316      -2.04690057      -0.18616948
C       -1.78187865      -1.78187865      -1.78187865
C       -1.50825834      -2.26397711      -3.04113053
C       -0.32765566      -2.08963286      -3.92225378
N       -3.58478074      -3.66199039      -6.96558361
C       -3.25562810      -5.06831961      -7.16020206
C       -4.09213276      -2.93484767      -8.13431441
C       -3.00887000      -2.40040288      -9.04645485
C       -2.44777635      -1.14412174      -8.74143944
C       -1.46381568      -0.57036562      -9.54815648
C       -1.01016477      -1.24602298     -10.67460116
C       -1.54552842      -2.49217556     -10.99466542
C       -2.54208863      -3.06575712     -10.19266389
H       -1.90774466      -4.25479138      -4.83995118
H       -3.60025281      -4.52515922      -4.34568444
H       -3.28915008      -2.45199782       0.67586908
H       -4.80862066      -2.53362384      -0.22861765
H       -3.99399618      -0.97739008      -0.02188801
H       -0.07821623      -3.01279477      -4.45321468
H        0.55844113      -1.80727765      -3.34495760
H       -0.51622501      -1.30416066      -4.66045716
H       -3.10841655      -5.59957417      -6.21966532
H       -2.33128847      -5.13500488      -7.73945434
H       -4.07311523      -5.55920784      -7.69591014
H       -4.70652830      -2.09133925      -7.79217734
H       -4.79539231      -3.57974953      -8.67174608
H       -2.79226413      -0.59098995      -7.86709111
H       -1.05968796       0.40687461      -9.29622100
H       -0.24663502      -0.80067333     -11.30688224
H       -1.18560489      -3.00648165     -11.88311888
C       -3.06129214      -4.33642058     -10.62791335
C       -3.49612508      -5.40060123     -10.99243478
Br      -4.19921316      -7.12129132     -11.58183510
O       -3.65948960       5.65393672       1.66893491
C       -4.61326056       5.17884192       2.28894612
C       -4.59359427       3.76957871       2.85084128
N       -3.35033205       3.05678033       2.59481194
N       -2.46394254       2.92917098       3.60930424
C       -1.47660926       2.18390871       3.09635258
C       -0.27614448       1.87535686       3.91017187
C       -1.78187865       1.78187865       1.78187865
C       -3.00739667       2.32829309       1.47767621
C       -3.83602734       2.25402968       0.24948528
N       -5.78043917       5.92155218       2.51036339
C       -6.99580446       5.38175528       3.10659003
C       -5.84413237       7.30124192       2.01592056
C       -6.40843948       7.42996600       0.61732225
C       -5.52378824       7.27880161      -0.46925232
C       -5.96084601       7.40982707      -1.78833529
C       -7.29730458       7.68507808      -2.05159375
C       -8.19296074       7.83382394      -0.99441527
C       -7.75458182       7.71413324       0.33179458
H       -5.40533046       3.17685576       2.42030101
H       -4.71877947       3.81382713       3.93848987
H       -0.19236619       0.79664580       4.07626684
H       -0.31751839       2.36412828       4.88921548
H        0.63022970       2.22069867       3.40280530
H       -4.90035029       2.16029905       0.48357633
H       -3.56743320       1.38311217      -0.35675124
H       -3.69214720       3.15031217      -0.36161654
H       -6.82012521       4.45475488       3.65277596
H       -7.71648079       5.17880558       2.31046131
H       -7.40656762       6.11085984       3.81080575
H       -4.83382464       7.73164817       2.02457208
H       -6.40156256       7.90801517       2.73731019
H       -4.46891958       7.06984462      -0.28841901
H       -5.25265305       7.30247404      -2.60609273
H       -7.64034436       7.79118744      -3.07734122
H       -9.23476318       8.05575935      -1.21531710
C       -8.74570381       7.92498636       1.35493590
C       -9.57576848       8.10157585       2.21181675
Br     -10.91791285       8.38710611       3.59732062
O        2.97041706      -2.10528719       5.90665698
C        2.96633685      -3.33185363       5.78285812
C        2.76253724      -4.01035044       4.44112658
N        2.58694830      -3.07822148       3.33675453
N        3.63087811      -2.87034720       2.50119245
C        3.15045264      -2.03639830       1.57001961
C        4.03743880      -1.52834807       0.49588634
C        1.78187865      -1.78187865       1.78187865
C        1.42127346      -2.48208206       2.91001045
C        0.12212246      -2.60129991       3.61611993
N        3.15068175      -4.17564620       6.88602678
C        3.01694373      -5.62618684       6.84101920
C        3.38267093      -3.57463066       8.20399326
C        2.11989189      -3.33302696       9.00280888
C        1.41907845      -2.13003788       8.78422120
C        0.26147613      -1.82076670       9.50009496
C       -0.22845188      -2.71405985      10.44518094
C        0.44363126      -3.91281500      10.67592314
C        1.61292609      -4.22097222       9.96661133
H        1.87873437      -4.65350314       4.47024972
H        3.64290137      -4.61978514       4.20840995
H        3.68447992      -1.86490051      -0.48410161
H        5.06592560      -1.88230660       0.62262995
H        4.05810843      -0.43393492       0.50123092
H       -0.05153099      -3.61933431       3.97642236
H       -0.71268820      -2.35361762       2.95286471
H        0.08975956      -1.91958026       4.47150300
H        3.07775662      -6.02261512       5.82728432
H        2.04534180      -5.90168620       7.25871968
H        3.82181812      -6.08083329       7.42558181
H        3.90102850      -2.61526130       8.07375508
H        4.09890632      -4.19545756       8.75252404
H        1.78750959      -1.40957258       8.05326302
H       -0.25006629      -0.87848113       9.32061952
H       -1.12757229      -2.47490509      11.00685777
H        0.05230380      -4.59943665      11.42346498
C        2.25772538      -5.46342093      10.30447976
C        2.79774479      -6.50397173      10.58744457
Br       3.67091050      -8.18645435      11.04497473
C       -0.00445707       0.01189536      -1.78238275
H       -0.66409135       0.67374010      -2.43557963
H        0.65740317      -0.63156657      -2.45157240
C       -0.90989263      -0.90692880      -0.91072765
C        0.90977584       0.90977584      -0.90977584
C       -0.00465871       1.77757030       0.00794375
H       -0.66225468       2.44313916      -0.64384735
H        0.64322798       2.43503045       0.67728295
C       -1.78241447       0.00034974      -0.00472694
H       -2.45427497      -0.65498947       0.64260836
H       -2.43311707       0.67328779      -0.65473579
C       -0.91132561       0.90220522       0.91563759
C       -0.01476271      -0.02253852       1.78660255
H       -0.67934791      -0.69751639       2.42135241
H        0.63392994       0.61504881       2.47327442
C        0.01484550      -1.77751727      -0.01636693
H        0.67870853      -2.42144646      -0.68295456
H       -0.62264859      -2.45592969       0.64226336
C        1.78714474       0.01002794       0.00389507
H        2.44202412       0.67113390       0.66197326
H        2.45385902      -0.65136977      -0.64189061
C        0.91606151      -0.90478549       0.90901405
