170
Properties=species:S:1:pos:R:3 pbc="F F F"
O        3.12341526       5.86686422      -1.99208175
C        4.20833962       5.45983000      -2.41287898
C        4.44644280       4.00316552      -2.76440594
N        3.27855656       3.15687658      -2.56649118
N        2.57022050       2.77705515      -3.65514211
C        1.62071439       1.96788384      -3.16827233
C        0.59791081       1.39046104      -4.07330135
C        1.78187865       1.78187865      -1.78187865
C        2.87269399       2.53251560      -1.40815638
C        3.51892703       2.73265701      -0.08795826
N        5.29281483       6.32888694      -2.59065296
C        6.63922567       5.89891267      -2.94601143
C        5.11133124       7.75439210      -2.29557152
C        5.44815685       8.13717218      -0.87039870
C        4.44254053       7.99785961       0.10706262
C        4.66559048       8.35464439       1.43789708
C        5.90518644       8.84990458       1.82430210
C        6.91768446       8.99210947       0.87742453
C        6.69294091       8.64536819      -0.46220055
Br       8.13621121       8.93725759      -1.66379597
H        5.25571206       3.59194350      -2.15483167
H        4.72008729       3.92824846      -3.82276071
H        0.67476225       0.29868524      -4.09183133
H        0.71795098       1.75347933      -5.09943183
H       -0.40803332       1.66281398      -3.73849360
H        4.60910854       2.76425306      -0.17086407
H        3.27731609       1.91511856       0.59864053
H        3.17751269       3.66842017       0.36509004
H        6.66146678       4.89520978      -3.37097950
H        7.25770778       5.90305379      -2.04498611
H        7.05225414       6.58538910      -3.69058997
H        4.06685327       8.03062630      -2.49256531
H        5.68613820       8.33970650      -3.02104323
H        3.45921140       7.61847599      -0.17265779
H        3.86633323       8.24999968       2.16729856
H        6.08122171       9.13194796       2.85897909
H        7.88080206       9.38737847       1.19297511
O       -3.32603720      -1.85686345      -5.79946058
C       -3.20336926      -3.08353876      -5.79414058
C       -2.81411799      -3.85372622      -4.54617005
N       -2.61574544      -3.00881344      -3.37736544
N       -3.58926421      -2.97509059      -2.43806297
C       -3.09659455      -2.18335426      -1.47692174
C       -3.91784972      -1.85776387      -0.28605961
C       -1.78187865      -1.78187865      -1.78187865
C       -1.47101483      -2.34355694      -2.99879421
C       -0.23977675      -2.27627574      -3.82348981
N       -3.41800148      -3.84179624      -6.95255702
C       -3.15478110      -5.27133059      -7.05803808
C       -3.82619070      -3.15320086      -8.18190329
C       -2.67128810      -2.72352219      -9.06091744
C       -2.06023444      -1.48275231      -8.79035078
C       -1.00760165      -1.00323559      -9.57150054
C       -0.53421236      -1.75997902     -10.63659753
C       -1.11830547      -2.99274955     -10.92131439
C       -2.18325615      -3.47170640     -10.14554709
Br      -2.92692162      -5.14017810     -10.67016504
H       -1.88450046      -4.40458561      -4.71340115
H       -3.61182083      -4.56235440      -4.29692123
H       -3.44499598      -2.24313566       0.62285283
H       -4.91899285      -2.29589660      -0.35597270
H       -4.03415322      -0.77403220      -0.18508885
H       -0.01332654      -3.23782631      -4.29307282
H        0.62978224      -2.00873359      -3.21484277
H       -0.34869979      -1.52269801      -4.60944502
H       -3.08379558      -5.75851277      -6.08534770
H       -2.20720710      -5.41540161      -7.58313898
H       -3.96912131      -5.74809661      -7.61101529
H       -4.41130880      -2.26269538      -7.91604071
H       -4.53472508      -3.78943053      -8.72273231
H       -2.41853642      -0.86714480      -7.96466397
H       -0.56526507      -0.03564566      -9.34812362
H        0.28293002      -1.38809203     -11.24902857
H       -0.74182911      -3.57116742     -11.76220890
O       -5.42852500       4.05221734       1.50161889
C       -5.68454064       3.73219762       2.66431034
C       -4.69299471       2.98475569       3.53626386
N       -3.42933351       2.70124439       2.87134642
N       -2.35557227       3.46330549       3.18354000
C       -1.35120417       2.92740414       2.47826225
C       -0.00173993       3.54048818       2.51944510
C       -1.78187865       1.78187865       1.78187865
C       -3.11956396       1.62879038       2.06501163
C       -4.10476990       0.61154102       1.62323138
N       -6.91846928       4.04354195       3.25034351
C       -7.34444047       3.57627995       4.56342936
C       -7.90495406       4.79230374       2.46403705
C       -8.85897043       3.91873011       1.67802718
C       -8.45331553       3.47746967       0.40255233
C       -9.28621543       2.69167372      -0.39555137
C      -10.54201621       2.31975136       0.06902134
C      -10.96418302       2.73903482       1.32915157
C      -10.13436461       3.53788901       2.12825602
Br     -10.84804176       4.08742834       3.80179467
H       -5.11480620       2.02890050       3.85878052
H       -4.46100866       3.59121550       4.41887230
H        0.72399328       2.84172770       2.94754440
H        0.00808656       4.45055350       3.12839520
H        0.32789902       3.81011168       1.51106160
H       -4.78475487       0.32784369       2.43162712
H       -3.60579254      -0.30507272       1.29307431
H       -4.69870224       0.99443600       0.78770458
H       -6.51141377       3.23687328       5.17936900
H       -8.03520913       2.73985897       4.43067959
H       -7.83974303       4.39438895       5.09410123
H       -7.37729924       5.45119561       1.76155003
H       -8.43714042       5.47968433       3.13006318
H       -7.47551566       3.76213172       0.01269781
H       -8.95232017       2.37817816      -1.38146397
H      -11.19448922       1.71087897      -0.55117761
H      -11.95234417       2.44586631       1.67699495
O        1.41568782      -4.34778174       5.21889168
C        2.27085188      -5.08551850       4.72467823
C        3.03377605      -4.71308871       3.46714950
N        2.66409263      -3.41410458       2.92372710
N        3.50109394      -2.37106218       3.13026164
C        2.93554892      -1.35454280       2.46677883
C        3.54745470      -0.00459559       2.50962292
C        1.78187865      -1.78187865       1.78187865
C        1.63129259      -3.12058964       2.06148375
C        0.60804257      -4.10333584       1.62816389
N        2.58796904      -6.32181348       5.30257222
C        3.47943303      -7.30474182       4.69997493
C        1.90336996      -6.72074743       6.53717747
C        0.63327096      -7.51222357       6.31023319
C       -0.56262179      -6.79723635       6.09872297
C       -1.77991398      -7.45326106       5.90899070
C       -1.82725987      -8.84210941       5.91593938
C       -0.65741650      -9.57193921       6.11784669
C        0.56475211      -8.91564218       6.32011535
Br       2.07596220     -10.02351904       6.63778353
H        2.86227951      -5.45641768       2.68379004
H        4.10478722      -4.67152751       3.69478173
H        3.86256687       0.30553976       1.50825172
H        4.42743539       0.01756293       3.16098968
H        2.83083446       0.72931582       2.89175563
H        1.04980446      -5.08069475       1.41372647
H        0.10694438      -3.77468300       0.71216675
H       -0.15256275      -4.22853448       2.40487108
H        4.12187319      -6.87418524       3.93159763
H        2.87502469      -8.09061508       4.24010791
H        4.12457025      -7.72914129       5.47452168
H        1.65408670      -5.82082135       7.11513683
H        2.61198583      -7.26163837       7.17326373
H       -0.55269231      -5.70682049       6.09621700
H       -2.68892468      -6.87525741       5.76270163
H       -2.77392056      -9.35611917       5.77199197
H       -0.71069076     -10.65843573       6.12746046
C       -0.00445707       0.01189536      -1.78238275
H       -0.66409135       0.67374010      -2.43557963
H        0.65740317      -0.63156657      -2.45157240
C       -0.90989263      -0.90692880      -0.91072765
C        0.90977584       0.90977584      -0.90977584
C       -0.00465871       1.77757030       0.00794375
H       -0.66225468       2.44313916      -0.64384735
H        0.64322798       2.43503045       0.67728295
C       -1.78241447       0.00034974      -0.00472694
H       -2.45427497      -0.65498947       0.64260836
H       -2.43311707       0.67328779      -0.65473579
C       -0.91132561       0.90220522       0.91563759
C       -0.01476271      -0.02253852       1.78660255
H       -0.67934791      -0.69751639       2.42135241
H        0.63392994       0.61504881       2.47327442
C        0.01484550      -1.77751727      -0.01636693
H        0.67870853      -2.42144646      -0.68295456
H       -0.62264859      -2.45592969       0.64226336
C        1.78714474       0.01002794       0.00389507
H        2.44202412       0.67113390       0.66197326
H        2.45385902      -0.65136977      -0.64189061
C        0.91606151      -0.90478549       0.90901405
