189
Properties=species:S:1:pos:R:3 pbc="F F F"
C        0.00000000       0.00000000       0.00000000
C        0.88082707       0.88082707      -0.88082707
C        0.71382430       2.25948334      -0.87184233
C        1.51769980       3.06208559      -1.68863431
C        2.49418454       2.50677524      -2.54359028
C        2.65945290       1.10950255      -2.49972160
C        1.85488374       0.30275717      -1.68556229
C        3.35880353       3.42484270      -3.44342105
C        4.22280073       2.68898803      -4.50711282
C        3.38123314       2.08766198      -5.63240271
O        2.57079509       3.07720451      -6.25729128
C        1.67455966       3.69451410      -5.33687488
C        2.45690506       4.41211154      -4.24392622
N        4.23904515       4.27415227      -2.60132471
C        5.22936456       3.56045081      -1.78426159
C        5.90848281       4.57386283      -0.84305112
O        5.23748558       5.21393725      -0.03539375
N        7.27965184       4.66001037      -1.02675765
C        8.20125645       5.41686537      -0.27272238
C        7.85760517       6.16918952       0.84901595
C        8.83719046       6.87415445       1.55557658
C       10.17153692       6.83357402       1.14818595
Br      11.43390255       7.81385449       2.17180495
C       10.54438552       6.08618998       0.02302285
C       11.96814605       6.01014645      -0.45382360
C        9.54514666       5.38233794      -0.67672695
H       -0.03255380       2.72426954      -0.23302305
H        1.37140688       4.13905521      -1.63537875
H        3.41604146       0.60614344      -3.09463712
H        2.00144627      -0.77454293      -1.68819909
H        4.85892913       1.91330311      -4.06749412
H        4.90445568       3.41945284      -4.96706519
H        4.04420485       1.67490950      -6.40010940
H        2.74357851       1.26701943      -5.28916117
H        1.07762050       4.42031897      -5.89830694
H        0.98296907       2.94660743      -4.93307206
H        3.09761203       5.16189931      -4.73124125
H        1.76588970       4.97168943      -3.60474516
H        3.66772883       4.84117588      -1.96888061
H        5.97700785       3.07404186      -2.41721572
H        4.77491867       2.80027531      -1.14038359
H        7.66360434       4.15644508      -1.81590735
H        6.83473684       6.22792561       1.20908060
H        8.54104200       7.45198437       2.42786784
H       12.05955232       5.38818778      -1.35102214
H       12.60661917       5.56552564       0.31639745
H       12.34038908       7.00697776      -0.71133746
H        9.82952975       4.79874599      -1.54983711
C       -0.88082707      -0.88082707      -0.88082707
C       -2.00455453      -0.34463093      -1.49596451
C       -2.81439365      -1.15898702      -2.29503903
C       -2.53061506      -2.52870988      -2.48522512
C       -1.36445267      -3.02867713      -1.87554726
C       -0.55302083      -2.21732093      -1.07286143
C       -3.45588905      -3.40376552      -3.36741271
C       -3.17954769      -4.93323974      -3.30611415
C       -3.58471024      -5.54929049      -1.96729709
O       -4.95132716      -5.28493966      -1.66902406
C       -5.22264130      -3.88762620      -1.59568113
C       -4.94445815      -3.22786081      -2.94062386
N       -3.38436016      -2.95042916      -4.77973281
C       -2.07208609      -3.07388288      -5.42810799
C       -2.13925366      -2.38262966      -6.80351345
O       -2.41729490      -1.18732823      -6.88219344
N       -1.86853708      -3.23698043      -7.86090235
C       -1.75914413      -2.90406621      -9.22763387
C       -1.85128551      -1.60432410      -9.72216913
C       -1.70851496      -1.35620070     -11.09105268
C       -1.47115680      -2.40556946     -11.98019872
Br      -1.28227363      -1.97472724     -13.81895122
C       -1.37541102      -3.72213452     -11.51000711
C       -1.11931265      -4.88513578     -12.42766767
C       -1.52164299      -3.95400555     -10.12856300
H       -2.26082184       0.70372868      -1.36764562
H       -3.67236164      -0.69553126      -2.77794794
H       -1.05119884      -4.06058023      -2.00504294
H        0.33255387      -2.64154429      -0.60611201
H       -2.13506157      -5.18008448      -3.52458031
H       -3.77986659      -5.42641461      -4.08469251
H       -3.46502102      -6.63668270      -2.01752003
H       -2.96289358      -5.19957978      -1.13728575
H       -6.28134311      -3.77279551      -1.34210779
H       -4.64212504      -3.43845399      -0.78206952
H       -5.58763253      -3.71416801      -3.68895205
H       -5.25683003      -2.17883641      -2.90665785
H       -3.66803203      -1.96875677      -4.84099653
H       -1.79539087      -4.12523810      -5.54763645
H       -1.27714217      -2.56908463      -4.86935077
H       -1.77845825      -4.21975287      -7.63774566
H       -2.02905752      -0.75384615      -9.07067817
H       -1.78376649      -0.33220748     -11.44918456
H       -1.08828642      -5.83234308     -11.87813274
H       -0.15425039      -4.76989445     -12.93160252
H       -1.91694532      -4.96889508     -13.17286390
H       -1.44608655      -4.97413654      -9.75788976
C       -0.88082707       0.88082707       0.88082707
C       -2.22401478       0.57115398       1.04998121
C       -3.02973673       1.38757832       1.85110464
C       -2.51788463       2.53887145       2.48779399
C       -1.14476767       2.80130489       2.32260450
C       -0.33585321       1.98801074       1.51933924
C       -3.44177219       3.42690147       3.35839361
C       -2.82867693       4.78469157       3.80553307
C       -2.68192886       5.77163856       2.64773041
O       -3.92657653       5.98734674       1.99136761
C       -4.46677293       4.78092779       1.45824791
C       -4.74320490       3.78870965       2.58102827
N       -3.88455360       2.67190619       4.55806234
C       -2.82308861       2.26336615       5.48762221
C       -3.43691078       1.33515653       6.55332945
O       -3.98277747       0.28521396       6.21882514
N       -3.30237952       1.81865738       7.84538295
C       -3.67007960       1.17490797       9.04585664
C       -4.18639979      -0.11805605       9.10943500
C       -4.50490310      -0.69299113      10.34385637
C       -4.30959294       0.01896367      11.52836837
Br      -4.76167420      -0.84332265      13.15760054
C       -3.79325194       1.32116997      11.49313074
C       -3.56364072       2.12721305      12.74126232
C       -3.47792427       1.88474879      10.24153849
H       -2.65715584      -0.30251492       0.57009787
H       -4.07105077       1.09786281       1.97692727
H       -0.66253596       3.64287725       2.81140881
H        0.71781742       2.22962146       1.40329839
H       -1.86475638       4.66365260       4.31131739
H       -3.50432280       5.24584038       4.54081053
H       -2.34472170       6.73848710       3.03601496
H       -1.93965731       5.44922690       1.91087491
H       -5.40458631       5.03678105       0.95487905
H       -3.78969347       4.37423572       0.69871936
H       -5.45151250       4.26256498       3.27667511
H       -5.25607800       2.90982689       2.17641940
H       -4.38340833       1.82638436       4.26799264
H       -2.36771525       3.13584840       5.96470178
H       -2.03245997       1.68642423       4.99669337
H       -2.93665637       2.75707219       7.94222822
H       -4.35112762      -0.71457851       8.21703273
H       -4.90503589      -1.70391634      10.36403897
H       -3.16620327       3.12174344      12.51081554
H       -2.83641204       1.62891175      13.39042356
H       -4.50383678       2.27164392      13.28322360
H       -3.07472725       2.89476044      10.20862515
C        0.88082707      -0.88082707       0.88082707
C        0.31171619      -1.63409896       1.89933482
C        1.12509022      -2.43288503       2.71044444
C        2.52471976      -2.48570617       2.53412413
C        3.06178184      -1.73704637       1.46984885
C        2.25119659      -0.93429146       0.65771515
C        3.39633621      -3.37227218       3.45845889
C        4.93178131      -3.16313309       3.32398718
C        5.39247797      -1.81978448       3.88903537
O        4.99300695      -1.66562302       5.24666091
C        3.57730190      -1.72993970       5.39870704
C        3.06345875      -3.09411212       4.95537195
N        3.07663812      -4.80484272       3.23304129
C        3.36270623      -5.32279427       1.88857647
C        2.79231145      -6.75022438       1.78286093
O        1.59002932      -6.94969774       1.94708950
N        3.75571611      -7.70690983       1.50379391
C        3.55461946      -9.08112431       1.25510044
C        2.30039103      -9.68552243       1.19186528
C        2.18636871     -11.05206014       0.91733949
C        3.32584453     -11.82885748       0.70222297
Br       3.07560131     -13.67261691       0.32773387
C        4.59921417     -11.24694698       0.76139149
C        5.85553803     -12.04119493       0.53538314
C        4.69571273      -9.86956109       1.03893772
H       -0.76117718      -1.61423867       2.07167730
H        0.63806199      -3.02554471       3.48223414
H        4.12305755      -1.75438138       1.23938309
H        2.70293670      -0.35841807      -0.14625234
H        5.28073605      -3.26789544       2.29109488
H        5.44145163      -3.94910831       3.90041377
H        6.48616969      -1.77099637       3.86205769
H        5.02244386      -0.96922786       3.30808739
H        3.35516256      -1.58088212       6.46020173
H        3.10662299      -0.90736544       4.84866013
H        3.56017066      -3.85439155       5.57619039
H        1.99368309      -3.17292840       5.17571280
H        2.08445492      -4.97021534       3.42311507
H        4.43945314      -5.33188279       1.69692949
H        2.87665353      -4.73883174       1.10009230
H        4.71902754      -7.39779722       1.51913201
H        1.38416513      -9.12330094       1.34611576
H        1.19524052     -11.49720787       0.87271013
H        6.74996657     -11.41614353       0.63265214
H        5.86375980     -12.46571048      -0.47372291
H        5.93981028     -12.84460088       1.27429314
H        5.68192491      -9.41224826       1.08393968
