133
Properties=species:S:1:pos:R:3 pbc="F F F"
C        0.00000000       0.00000000       0.00000000
C        0.89094471       0.89094471      -0.89094471
C        1.48388669       0.28015130      -2.00744129
C        2.26641635       1.10770211      -2.80246734
O        2.94265690       0.75468451      -3.93225163
C        3.52657849       1.92268237      -4.35469494
N        3.30531088       2.95624195      -3.56213149
C        2.48686647       2.45509578      -2.57347280
C        1.87681563       3.02572434      -1.44687844
Cl       2.17221309       4.69850269      -1.21602373
C        1.10245588       2.24733161      -0.56183620
N        0.38408254       2.86205329       0.48734801
C        4.39922162       1.83975047      -5.52853152
C        5.60570179       2.55691528      -5.45144379
C        6.52512883       2.51666883      -6.48765565
C        6.24701011       1.76038431      -7.62151270
C        5.03878742       1.03859052      -7.76735889
C        4.73029569       0.27665476      -8.92715842
C        3.51745210      -0.40345109      -9.05646756
C        2.57982762      -0.33544093      -8.03999288
C        2.86116837       0.40093505      -6.88992205
C        4.08788967       1.08920873      -6.70482368
H        1.34062907      -0.76523688      -2.25149900
H        0.12741012       2.22493814       1.23764154
H        0.80970429       3.72569534       0.81931437
H        5.83468921       3.14764416      -4.56491143
H        7.45802557       3.06956443      -6.41380907
H        6.99971464       1.75590220      -8.40746216
H        3.29340886      -0.98035228      -9.95022803
H        1.62760366      -0.85048648      -8.13821113
H        2.08123397       0.43644102      -6.13191861
C        5.63405079       0.15548693     -10.04167404
C        6.39094570       0.05400888     -10.97508087
Br       7.61478074      -0.11007256     -12.48432077
C       -0.89094471      -0.89094471      -0.89094471
C       -1.38253129      -2.07347797      -0.31547002
C       -2.19589049      -2.84841747      -1.13227784
O       -2.79042014      -4.03143934      -0.80773356
C       -3.50154150      -4.37100744      -1.93140686
N       -3.36442087      -3.52361921      -2.93564424
C       -2.54554480      -2.53524177      -2.43464849
C       -2.03236504      -1.34553242      -2.97152095
Cl      -2.50512626      -0.99911885      -4.58249440
C       -1.16289214      -0.52245982      -2.22627174
N       -0.76665659       0.73660873      -2.72873997
C       -4.19727416      -5.66010754      -1.91012192
C       -4.10123502      -6.43165787      -3.08116797
C       -4.68646464      -7.68561133      -3.15737732
C       -5.38294514      -8.18448204      -2.06147995
C       -5.53536625      -7.44381997      -0.86555062
C       -6.26008741      -7.93044423       0.25642277
C       -6.41872017      -7.16618732       1.41443891
C       -5.86798848      -5.89763810       1.48124701
C       -5.14791981      -5.40002144       0.39591578
C       -4.94186791      -6.14842621      -0.79162795
H       -1.15904954      -2.36980458       0.70196292
H        0.07760209       1.10406872      -2.29637754
H       -0.75116870       0.78117633      -3.74609289
H       -3.55302205      -6.05149945      -3.94272330
H       -4.59946001      -8.27626710      -4.06567197
H       -5.82232022      -9.17457688      -2.16618191
H       -6.97780730      -7.54971026       2.26423294
H       -5.99827642      -5.29056101       2.37350912
H       -4.75408470      -4.39046045       0.49495156
C       -6.87944236      -9.23025675       0.27848734
C       -7.39815213     -10.31884974       0.29696643
Br      -8.23686196     -12.07901254       0.32684554
C       -0.89094471       0.89094471       0.89094471
C       -2.01285079       1.47608455       0.28254394
C       -2.80767387       2.25876158       1.11015035
O       -3.94208346       2.92830442       0.75920517
C       -4.36190008       3.51559498       1.92646073
N       -3.56369804       3.30257558       2.95741070
C       -2.57361409       2.48633280       2.45548816
C       -1.44171391       1.88394824       3.02375626
Cl      -1.20466785       2.18794541       4.69412624
C       -0.55669208       1.11006863       2.24486298
N        0.49848804       0.39921466       2.85806121
C       -5.54003328       4.38255968       1.84491065
C       -5.46517498       5.59260624       2.55627964
C       -6.50570566       6.50716666       2.51658097
C       -7.64168704       6.22052730       1.76669278
C       -7.78531536       5.00840771       1.05101375
C       -8.94712675       4.69125358       0.29572854
C       -9.07400975       3.47477622      -0.37831739
C       -8.05300852       2.54205542      -0.31068437
C       -6.90091791       2.83189972       0.41920785
C       -6.71827281       4.06254266       1.10110661
H       -2.26096272       1.32700245      -0.76107398
H        1.24705846       0.14304412       2.21872108
H        0.83241129       0.83022891       3.71826764
H       -4.57703649       5.82825282       3.14195548
H       -6.43359066       7.44287776       3.06493066
H       -8.43104528       6.96965726       1.76237646
H       -9.96933630       3.24410370      -0.95015539
H       -8.14923685       1.58707897      -0.82098751
H       -6.13924226       2.05555493       0.45479641
C      -10.06625309       5.58942379       0.17553489
C      -11.00352140       6.34164133       0.07487271
Br     -12.51900499       7.55791349      -0.08788953
C        0.89094471      -0.89094471       0.89094471
C        2.19382877      -1.14438801       0.43326250
C        2.98070161      -1.93413420       1.26174998
O        4.26964061      -2.31908110       1.04087133
C        4.59823408      -3.05191842       2.15380329
N        3.61231246      -3.18891976       3.02245211
C        2.57570991      -2.46546875       2.47425639
C        1.26640926      -2.18892943       2.89407972
Cl       0.81959586      -2.86035609       4.40678756
C        0.38613486      -1.43264414       2.09284468
N       -0.87864312      -1.04770612       2.58972483
C        5.92424946      -3.67460525       2.16864891
C        5.97807099      -4.99876678       2.63722309
C        7.17395754      -5.69889588       2.65659988
C        8.33748580      -5.08019004       2.21123128
C        8.35031791      -3.74163999       1.75277893
C        9.53348920      -3.08807377       1.31254590
C        9.52231064      -1.75655819       0.89159974
C        8.33691002      -1.04129683       0.90617273
C        7.16183650      -1.66174101       1.32844797
C        7.12076875      -3.01785216       1.74330118
H        2.57775962      -0.74756001      -0.49842843
H       -1.54574050      -0.79635275       1.86409449
H       -1.25753578      -1.69376152       3.27985952
H        5.07083608      -5.49350260       2.98290612
H        7.20214063      -6.72488000       3.01437845
H        9.25158978      -5.66993150       2.24155773
H       10.43517159      -1.26822156       0.55989146
H        8.32171845      -0.00039556       0.59321430
H        6.26369152      -1.04744228       1.33845980
C       10.81536553      -3.74291983       1.27292641
C       11.88893696      -4.29135340       1.23974508
Br      13.62481117      -5.17812410       1.18609368
