161
Properties=species:S:1:pos:R:3 pbc="F F F"
C        0.00000000       0.00000000       0.00000000
C        0.87185168       0.87185168      -0.87185168
C        1.54560383       1.97345217      -0.40912463
C        2.28944334       2.59860773      -1.45596392
C        2.16106435       1.94097995      -2.66643485
S        1.10615284       0.58731793      -2.52327493
C        2.73402869       2.25625801      -3.92426218
C        3.91945110       1.75787319      -4.31835889
C        4.85769174       0.85907228      -3.57626991
N        5.26807764      -0.29313204      -4.39419843
C        5.90547729       0.16871588      -5.63511504
C        4.99939593       1.05285506      -6.45825684
C        4.84652442       0.87273012      -7.78593849
C        4.03698147       1.65201414      -8.66482129
C        2.82231124       2.29823237      -8.48082701
C        2.37117366       2.99994165      -9.63990244
C        3.23760589       2.82971529     -10.68601665
Br       2.98312638       3.59510818     -12.37615588
S        4.56060927       1.85044832     -10.30408237
C        4.36803309       2.15071198      -5.67764544
O        4.25617529       3.29990422      -6.08474264
C        6.08553825      -1.24413628      -3.60587668
C        6.10111603      -2.62668783      -4.27005694
C        7.52123946      -0.79408094      -3.30315237
H        1.51269604       2.32361678       0.61461531
H        2.89231153       3.48999984      -1.32485098
H        2.16286806       2.91190790      -4.57953084
H        4.38721839       0.49469320      -2.65709653
H        5.72781672       1.45267673      -3.26714996
H        6.82161855       0.73377696      -5.42281166
H        6.19933458      -0.69799084      -6.23697009
H        5.40550199       0.06500778      -8.25325132
H        2.28077607       2.29777386      -7.54374016
H        1.46434677       3.59059323      -9.68445694
H        5.58283850      -1.39490478      -2.64030810
H        6.66007072      -2.62923841      -5.21136905
H        5.08317270      -2.97568534      -4.47258113
H        6.57324585      -3.36038931      -3.60716836
H        8.13215331      -0.73438956      -4.20947253
H        8.00807458      -1.50936163      -2.62982822
H        7.54502218       0.18065798      -2.80670386
C       -0.87185168      -0.87185168      -0.87185168
C       -1.78487212      -0.37590522      -1.76740330
C       -2.46040654      -1.43222782      -2.45138064
C       -2.02549093      -2.68525753      -2.05773069
S       -0.82214496      -2.56270588      -0.83189486
C       -2.45440763      -3.96308408      -2.49705718
C       -1.86810197      -4.60316312      -3.52441809
C       -0.74454681      -4.14732877      -4.40115835
N        0.30918102      -5.16853122      -4.50979382
C       -0.25167975      -6.42007430      -5.03755415
C       -1.36930834      -6.96224922      -4.17895027
C       -1.42325053      -8.26121736      -3.82072513
C       -2.43399977      -8.88737530      -3.03244182
C       -3.20200538      -8.42811122      -1.97125403
C       -4.13239152      -9.39537931      -1.48324692
C       -4.01319552     -10.57833571      -2.16180660
Br      -5.06290945     -12.08740394      -1.80407704
S       -2.81547931     -10.54637190      -3.35328876
C       -2.40577142      -5.95008100      -3.84053810
O       -3.60918961      -6.17456853      -3.85706401
C        1.47468543      -4.65551943      -5.26644465
C        2.72434805      -5.49536254      -4.97347065
C        1.27718557      -4.52470393      -6.78279253
H       -1.97040426       0.67816239      -1.92945564
H       -3.22973937      -1.27800333      -3.19941965
H       -3.27659567      -4.42490365      -1.95280747
H       -0.30708884      -3.22357162      -4.00834766
H       -1.15824851      -3.90157750      -5.38781740
H       -0.64648122      -6.28015245      -6.05157350
H        0.54104959      -7.17278836      -5.10657507
H       -0.63099527      -8.91613202      -4.17663380
H       -3.12732574      -7.42620730      -1.56875706
H       -4.84028272      -9.21575035      -0.68336387
H        1.70614934      -3.65229314      -4.88209802
H        2.65431085      -6.50455475      -5.39195747
H        2.89553391      -5.58032502      -3.89527739
H        3.61063229      -5.02107280      -5.40958438
H        1.15884299      -5.49941146      -7.26666779
H        2.14909487      -4.04002449      -7.23761154
H        0.40530236      -3.91050725      -7.02717913
C       -0.87185168       0.87185168       0.87185168
C       -0.62521504       1.10143601       2.20152958
C       -1.61303652       1.96475340       2.76622507
C       -2.56125849       2.36541102       1.84180964
S       -2.25829013       1.65664360       0.30181196
C       -3.68890934       3.20600622       2.01963333
C       -3.62988119       4.53617178       1.82963021
C       -2.45509412       5.38349060       1.45444921
N       -2.76633185       6.27599783       0.32681435
C       -3.90822806       7.13743490       0.66364524
C       -5.14611700       6.34789407       1.01649677
C       -6.35375135       6.65221070       0.49923098
C       -7.58912041       5.99292195       0.77177453
C       -7.89412085       4.66583977       1.04141000
C       -9.28279567       4.44101846       1.28720363
C       -9.99960449       5.59967857       1.15405477
Br     -11.85360230       5.70383276       1.39695536
S       -9.04513085       6.93084995       0.73915916
C       -4.90345308       5.27490548       2.01803196
O       -5.65546998       5.03220088       2.95315129
C       -1.56057244       7.00953103      -0.12282482
C       -1.74995885       7.54297339      -1.54844711
C       -1.08885152       8.14155913       0.79990024
H        0.20706515       0.67897958       2.74978308
H       -1.62519978       2.27796545       3.80399712
H       -4.62527164       2.72732443       2.30171072
H       -1.60210091       4.75204655       1.18486066
H       -2.15075692       5.95779463       2.33909186
H       -3.67416397       7.79030964       1.51373355
H       -4.13335405       7.79098927      -0.18602947
H       -6.41171559       7.49638299      -0.18433750
H       -7.15168893       3.87986635       1.09073482
H       -9.71164295       3.48088621       1.54686779
H       -0.73713005       6.28522330      -0.19411152
H       -2.49138978       8.34702788      -1.59621630
H       -2.06411319       6.74350106      -2.22754575
H       -0.80546710       7.94565975      -1.93110195
H       -1.80498515       8.96873355       0.83351757
H       -0.13695339       8.55044220       0.44114557
H       -0.92130867       7.78902466       1.82205069
C        0.87185168      -0.87185168       0.87185168
C        1.25378828      -2.14423253       0.53015982
C        2.07618001      -2.72400762       1.54382736
C        2.29568079      -1.86601814       2.60678022
S        1.46764397      -0.37388263       2.37521910
C        3.04447524      -2.07837616       3.79169749
C        4.34903790      -1.76407610       3.88256917
C        5.25750841      -1.19899756       2.83652796
N        6.00174297      -0.03189324       3.33550780
C        6.78570712      -0.40135112       4.52224996
C        5.92657199      -0.94535507       5.63858077
C        6.06763808      -0.52531139       6.91224356
C        5.32982097      -0.97771902       8.04627690
C        4.01400999      -1.39509816       8.19226248
C        3.69021774      -1.79699024       9.52380978
C        4.76039931      -1.63162999      10.36130853
Br       4.72028280      -2.04718694      12.18692070
S        6.12449116      -1.00538755       9.58526126
C        4.98476422      -2.01062011       5.20100619
O        4.76926959      -3.03393212       5.83762044
C        6.79285615       0.59976912       2.25419162
C        7.16266912       2.04183803       2.62365405
C        8.04894600      -0.16545884       1.81590605
H        0.96482739      -2.64296023      -0.38609011
H        2.48859781      -3.72529482       1.49326972
H        2.51358519      -2.49419968       4.64652192
H        4.68204059      -0.90411142       1.95285611
H        5.94202254      -1.99350232       2.51211856
H        7.53829820      -1.16150173       4.27840723
H        7.32855787       0.47728552       4.88704149
H        6.83098822       0.22255593       7.11532880
H        3.30712211      -1.44118298       7.37398500
H        2.72585436      -2.18365131       9.82989127
H        6.14240550       0.68682474       1.37266106
H        7.88771929       2.08811405       3.44259613
H        6.27456846       2.61134617       2.91684620
H        7.60899036       2.55127124       1.76230577
H        8.80728054      -0.19522939       2.60472634
H        8.50445221       0.32158655       0.94567551
H        7.81632864      -1.19354110       1.52251428
