177
Properties=species:S:1:pos:R:3 pbc="F F F"
C        0.00000000       0.00000000       0.00000000
C        6.32811494       2.19116203      -5.99942811
C        4.98404540       1.96999911      -6.67808426
C        4.62851236       0.47949375      -6.87884708
C        4.55659576      -0.33418963      -5.57724033
C        3.43199334       0.13576679      -4.69882625
C        3.63173439       0.50931366      -3.42105711
C        2.63073562       1.10206816      -2.53184904
C        2.48241306       2.49420692      -2.48950360
C        1.53656838       3.07570383      -1.64335857
C        0.73485100       2.26860725      -0.83682602
C        0.88241719       0.88241719      -0.88241719
C        1.82665289       0.29416010      -1.72332161
C        2.08809925       0.21674601      -5.35145498
O        1.05130725      -0.10435072      -4.78328963
C        2.10045570       0.69200680      -6.76988777
C        1.03290002       1.42118149      -7.14350250
C        0.86391881       2.02078459      -8.46584360
C        0.22149302       1.31325267      -9.48695433
C        0.06286220       1.89146978     -10.74805742
C        0.54753853       3.17679566     -10.99330314
C        1.19007910       3.87858323      -9.97441054
Br       1.84930786       5.61944660     -10.30546097
C        1.35125435       3.30873250      -8.71229386
C        3.28815264       0.33204074      -7.62099267
H        6.57480644       3.25778494      -5.99776336
H        7.12740087       1.65895765      -6.52399603
H        6.31183475       1.85762155      -4.95793332
H        5.01390090       2.45732319      -7.66103208
H        4.20944307       2.48903378      -6.10177193
H        5.41010420       0.03506791      -7.50986498
H        5.51836509      -0.29738163      -5.05327308
H        4.39045228      -1.39297559      -5.81749418
H        4.62557127       0.44510780      -2.98326412
H        3.09920241       3.13322746      -3.11726903
H        1.42222299       4.15616717      -1.61637031
H       -0.00290094       2.72609178      -0.18342797
H        1.92385514      -0.78726257      -1.76698212
H        0.22009284       1.62091215      -6.44555625
H       -0.16286452       0.31194042      -9.30425636
H       -0.44152964       1.34065900     -11.53812352
H        0.41767314       3.62121435     -11.97662918
H        1.85066686       3.86254535      -7.92121270
H        3.17093304      -0.71433516      -7.93378740
H        3.32407849       0.92114772      -8.54407763
C       -2.29224447      -6.76200343      -5.46445717
C       -2.47509920      -7.15214816      -4.00488142
C       -1.15658320      -7.53486603      -3.29540396
C       -0.09977474      -6.41935401      -3.28051770
C       -0.55743524      -5.24197230      -2.46717884
C       -0.59395343      -3.99504402      -2.97310771
C       -1.14445568      -2.81268075      -2.30751639
C       -2.49529187      -2.48707016      -2.48376155
C       -3.03463860      -1.36029910      -1.86069309
C       -2.22669434      -0.55494311      -1.05864682
C       -0.88241719      -0.88241719      -0.88241719
C       -0.33571709      -2.00503304      -1.50338446
C       -1.02385313      -5.55254365      -1.07990346
O       -0.77715248      -4.83509101      -0.11800267
C       -1.79335662      -6.82791396      -0.94107969
C       -2.76836660      -6.81558712      -0.01363028
C       -3.66834622      -7.93594871       0.25374793
C       -3.33477087      -8.89870233       1.21177318
C       -4.19872795      -9.96658805       1.46292659
C       -5.39686782     -10.07702525       0.75625575
C       -5.72541522      -9.11746148      -0.20019617
Br      -7.34744163      -9.26659187      -1.16018194
C       -4.86878509      -8.04765852      -0.45583710
C       -1.42353598      -7.97331088      -1.84433919
H       -3.26887667      -6.62241682      -5.93906124
H       -1.75487790      -7.53913105      -6.01634560
H       -1.74330822      -5.82115369      -5.56292771
H       -3.15581360      -8.01211657      -3.96432599
H       -2.98383747      -6.33334937      -3.48306192
H       -0.73025034      -8.39412058      -3.83066617
H        0.15595397      -6.12543230      -4.30477822
H        0.83068853      -6.80402563      -2.84163377
H       -0.25489570      -3.80910066      -3.98994682
H       -3.13582434      -3.11034933      -3.10352522
H       -4.08421826      -1.11338789      -1.99715432
H       -2.65260699       0.31832867      -0.57234049
H        0.70795848      -2.26426174      -1.34727144
H       -2.95103608      -5.92954615       0.59402099
H       -2.40447099      -8.81915984       1.77029857
H       -3.93872742     -10.71047656       2.21195110
H       -6.06547699     -10.90948001       0.95944032
H       -5.13233578      -7.30114331      -1.20094582
H       -0.51229234      -8.43613597      -1.44195696
H       -2.18728501      -8.75887409      -1.84314475
C       -3.45105033       3.57383654       7.49381821
C       -2.24962307       4.37275134       7.00975436
C       -0.89135526       3.72812995       7.36736798
C       -0.69006234       2.31744878       6.79213534
C       -0.63495512       2.34070322       5.29092804
C       -1.44788364       1.57989930       4.53432222
C       -1.56016597       1.62927469       3.07521216
C       -2.48858377       2.49470599       2.48283382
C       -2.61208347       2.55010232       1.09344500
C       -1.80807359       1.74163701       0.29057367
C       -0.88241719       0.88241719       0.88241719
C       -0.75478984       0.81965683       2.26968793
C        0.33972224       3.30461066       4.69141183
O        1.01471152       3.04147344       3.70348424
C        0.45746837       4.61335675       5.40646189
C        0.70411168       5.67906513       4.62263056
C        0.81073263       7.05398083       5.10729880
C        2.04931000       7.57248892       5.49852109
C        2.14485147       8.88678130       5.96045957
C        1.00331893       9.68580842       6.03514783
C       -0.23045043       9.16536816       5.64725428
Br      -1.77861501      10.24586134       5.74973908
C       -0.33391251       7.85459473       5.18377348
C        0.27557868       4.61648710       6.90027764
H       -4.37145997       4.14016913       7.31872565
H       -3.38011146       3.36473655       8.56550654
H       -3.54425180       2.62464338       6.95849444
H       -2.29499188       5.36877809       7.46848620
H       -2.34315780       4.52834677       5.92874419
H       -0.83785779       3.65510192       8.46207737
H       -1.47477274       1.64420695       7.15527685
H        0.25444607       1.90147983       7.16793711
H       -2.15075727       0.89680142       5.00638449
H       -3.11779358       3.13294285       3.09896246
H       -3.33117350       3.22576562       0.63782135
H       -1.90505719       1.79198662      -0.79042500
H       -0.01907315       0.16110121       2.72340034
H        0.82410486       5.56521553       3.54545058
H        2.94548527       6.95828838       5.44052915
H        3.11006868       9.28833539       6.25898617
H        1.08621901      10.70872991       6.39300577
H       -1.29860175       7.45577843       4.88004473
H        1.20531106       4.24426969       7.35142663
H        0.13329953       5.62923625       7.29336713
C        3.02904844      -7.42681049       4.06284614
C        3.68916151      -7.23833198       2.70463529
C        2.79922736      -7.67031012       1.51731571
C        1.46444851      -6.91509652       1.42010143
C        1.67996996      -5.45686108       1.12975534
C        1.16316747      -4.48911347       1.90982422
C        1.42462102      -3.05368961       1.78634219
C        2.49534674      -2.48390769       2.48686915
C        2.75508596      -1.11615170       2.38439312
C        1.94656284      -0.31256374       1.58115769
C        0.88241719      -0.88241719       0.88241719
C        0.61511335      -2.24750935       0.98151190
C        2.55228332      -5.15061994      -0.04660301
O        2.32234385      -4.23335974      -0.82545744
C        3.71896696      -6.06961863      -0.22623532
C        4.82877131      -5.50117131      -0.73235861
C        6.09284077      -6.20348511      -0.94577889
C        6.35536086      -6.83305969      -2.16672053
C        7.56486803      -7.50222077      -2.36469939
C        8.51426258      -7.54640033      -1.34302559
C        8.24865787      -6.92042815      -0.12601315
Br       9.53298927      -6.98102010       1.26020606
C        7.04403246      -6.24924221       0.07900605
C        3.54996222      -7.50771748       0.18350634
H        3.74983817      -7.22002122       4.86049535
H        2.66965343      -8.45269622       4.18800490
H        2.18634386      -6.74287855       4.19816721
H        4.60950847      -7.83599752       2.68675017
H        4.00095296      -6.19197778       2.60731803
H        2.57262983      -8.73753376       1.64487350
H        0.87878958      -7.06064346       2.33482350
H        0.86015843      -7.34491997       0.60989247
H        0.54053731      -4.75070515       2.76270072
H        3.13514568      -3.10171772       3.11283549
H        3.58921424      -0.67879444       2.92675179
H        2.15588407       0.75059736       1.50133210
H       -0.20459908      -2.68788446       0.42028931
H        4.84315868      -4.44532899      -1.00192643
H        5.62274746      -6.80103897      -2.97045417
H        7.76783725      -7.98623825      -3.31682263
H        9.45452621      -8.06672167      -1.50573121
H        6.84435833      -5.76062963       1.02943696
H        2.98068350      -8.01610124      -0.60639947
H        4.51053901      -8.03074065       0.24802418
