113
Properties=species:S:1:pos:R:3 pbc="F F F"
C        0.00000000       0.00000000       0.00000000
C        0.88247834       0.88247834      -0.88247834
C        0.64918263       2.25617693      -0.93281797
C        1.44418794       3.06179812      -1.74572068
C        2.47450871       2.49094539      -2.49516722
C        2.72372101       1.10987740      -2.43247962
C        1.90673659       0.30198706      -1.63257891
C        3.82391709       0.55952832      -3.27743180
O        4.05991461       1.14421161      -4.33601142
C        4.58629047      -0.59967689      -2.85895942
O        4.44581057      -1.12332417      -1.60212725
C        5.29216637      -2.18381545      -1.50338404
C        5.43695173      -3.00023273      -0.38417719
C        6.36812238      -4.04016709      -0.48729528
C        7.10477310      -4.22823819      -1.65997647
C        6.93997506      -3.39179971      -2.77241520
C        6.00413868      -2.34597904      -2.68475264
C        5.54892229      -1.31789378      -3.54821268
H       -0.15215463       2.70551456      -0.35135908
H        1.26078471       4.13224839      -1.80058205
H        3.08466817       3.12890273      -3.13348903
H        2.04617938      -0.77459119      -1.59823615
H        4.85688737      -2.83505053       0.51575271
H        6.51281946      -4.70348896       0.36299033
H        7.51552019      -3.54297595      -3.68036675
H        5.87449391      -1.11179270      -4.55912905
C        8.05624887      -5.30685783      -1.72978723
C        8.85310983      -6.21020178      -1.78825373
Br      10.14156660      -7.67083253      -1.88278913
C       -0.88247834      -0.88247834      -0.88247834
C       -0.29066670      -1.72366489      -1.82384594
C       -1.09296099      -2.52048892      -2.63825683
C       -2.48154399      -2.47964816      -2.49942917
C       -3.07990949      -1.64676679      -1.53940175
C       -2.27022504      -0.83076315      -0.74031437
C       -4.57008161      -1.63147448      -1.45932112
O       -5.18696037      -1.84987175      -2.50330551
C       -5.25387629      -1.38633812      -0.20535858
O       -4.56682296      -1.33518713       0.97739646
C       -5.47182911      -1.10706767       1.96716182
C       -5.17150646      -0.96972044       3.32033070
C       -6.25304164      -0.74115079       4.17894186
C       -7.55715501      -0.66207147       3.68271510
C       -7.83225731      -0.80413816       2.31580493
C       -6.75470670      -1.02908169       1.44087610
C       -6.60553872      -1.21743240       0.04372993
H        0.79021480      -1.75885002      -1.93608379
H       -0.64004749      -3.16986047      -3.38370720
H       -3.09951804      -3.10073185      -3.14681004
H       -2.70557435      -0.14368298      -0.02056702
H       -4.15312333      -1.03667379       3.68371299
H       -6.06429076      -0.62641493       5.24436551
H       -8.84757596      -0.74199744       1.93666240
H       -7.38352444      -1.23037279      -0.70793305
C       -8.64611924      -0.42859771       4.59553869
C       -9.55812679      -0.23306343       5.36002844
Br     -11.03276586       0.08309895       6.59614371
C       -0.88247834       0.88247834       0.88247834
C       -0.86045981       0.71164290       2.26607482
C       -1.67285099       1.50634525       3.07251050
C       -2.49438997       2.47435456       2.49187679
C       -2.50515957       2.66128020       1.09963826
C       -1.70481700       1.84395801       0.29252755
C       -3.42435540       3.69571211       0.54080970
O       -4.46564255       3.91127598       1.16321910
C       -3.09416688       4.42098585      -0.66957974
O       -1.85678166       4.31244671      -1.24461472
C       -1.84517123       5.11186364      -2.34529990
C       -0.77153396       5.26815996      -3.21879772
C       -0.96440957       6.14416065      -4.29331964
C       -2.17747453       6.81810859      -4.45907175
C       -3.24252814       6.64307971      -3.56501731
C       -3.06459475       5.76200801      -2.48369048
C       -3.85905502       5.31724667      -1.39706050
H       -0.22268857      -0.04104473       2.72307517
H       -1.67121960       1.37091916       4.15147640
H       -3.13141148       3.08455590       3.13109255
H       -1.72514259       1.93431283      -0.78963108
H        0.16100778       4.73722026      -3.07012834
H       -0.15228990       6.29551664      -5.00146636
H       -4.18223801       7.16980618      -3.69913319
H       -4.87387286       5.60662710      -1.15866969
C       -2.33978935       7.71405083      -5.57466191
C       -2.47572801       8.46440245      -6.50896867
Br      -2.69552932       9.67765756      -8.01966368
C        0.88247834      -0.88247834       0.88247834
C        0.92926068      -2.25679806       0.65211880
C        1.72341803      -3.06569230       1.46259642
C        2.47438330      -2.49457439       2.49166363
C        2.44352641      -1.10794857       2.71460305
C        1.62552059      -0.30321949       1.91256249
C        3.24997902      -0.56432174       3.84657645
O        3.41859938      -1.30439718       4.81714107
C        3.81917486       0.76733620       3.79373433
O        3.78850450       1.50507858       2.64118773
C        4.40499156       2.69045330       2.89719670
C        4.56652369       3.73049519       1.98486770
C        5.23500750       4.86914575       2.44938883
C        5.70958678       4.93532413       3.76224873
C        5.53397898       3.87398510       4.66059667
C        4.85959398       2.72571921       4.20903752
C        4.48493470       1.48145099       4.77575748
H        0.34604555      -2.70644233      -0.14776887
H        1.75568940      -4.14008691       1.29783884
H        3.08547157      -3.13728686       3.12430150
H        1.54614947       0.76549654       2.08917141
H        4.19235594       3.65711418       0.97084237
H        5.38240438       5.70666889       1.77060468
H        5.90529505       3.93146160       5.67907755
H        4.67073081       1.13127903       5.78237849
C        6.39536885       6.12149601       4.20530542
C        6.96971134       7.11491495       4.57636540
Br       7.89837456       8.72118936       5.17633800
