86
Properties=species:S:1:pos:R:3 pbc="F F F"
C        1.82279733       1.82279733      -1.82279733
C        1.49046939       1.58144127      -3.26806036
C        0.49069188       2.38505025      -3.85630898
C        0.11972920       2.20870349      -5.18924998
C        0.72789109       1.22982892      -5.96619135
C        1.71270149       0.41933679      -5.40174742
C        2.09253584       0.58819611      -4.06199195
I        3.58011196      -0.71261312      -3.34851291
H        2.86665978       1.62345584      -1.57218356
H        1.61337141       2.85758325      -1.53146130
H       -0.00525164       3.15097878      -3.26275575
H        0.44230071       1.08570387      -7.00493228
H        2.17493002      -0.34651228      -6.02126147
C       -0.90181226       3.04542462      -5.76366342
C       -1.75735323       3.74617857      -6.24473467
Br      -3.14069063       4.87923843      -7.02258620
C       -1.82279733      -1.82279733      -1.82279733
C       -1.77137437      -3.24055905      -1.32803759
C       -2.72655639      -3.63741223      -0.36808250
C       -2.73114004      -4.93358630       0.14704367
C       -1.78707531      -5.86249456      -0.27434149
C       -0.82908874      -5.48825532      -1.21644163
C       -0.81550515      -4.18701646      -1.74020229
I        0.69235253      -3.76679792      -3.14156637
H       -1.49751671      -1.70622610      -2.85855636
H       -2.83570627      -1.41179165      -1.75491804
H       -3.46873634      -2.92264360      -0.01710295
H       -1.78367848      -6.87360803       0.12434964
H       -0.09304133      -6.22508360      -1.53155428
C       -3.71970871      -5.31120491       1.12363784
C       -4.54763497      -5.62746050       1.94153546
Br      -5.88632171      -6.13881903       3.26400673
C       -1.82279733       1.82279733       1.82279733
C       -1.15083394       2.04018445       3.14895262
C       -0.29705028       3.15624111       3.27875973
C        0.37143732       3.41354741       4.47557259
C        0.21193660       2.56845479       5.56739317
C       -0.62106383       1.45517593       5.45754593
C       -1.29736053       1.18721368       4.25814970
I       -2.50720931      -0.53032638       4.23912883
H       -2.80684577       1.35593940       1.89951401
H       -1.95480986       2.76585557       1.28175053
H       -0.15036320       3.82534635       2.43277333
H        0.73132995       2.76193344       6.50233337
H       -0.73065610       0.79981251       6.31921061
C        1.23428506       4.56168245       4.57987839
C        1.95692005       5.52324555       4.66723451
Br       3.12535970       7.07801175       4.80848195
C        1.82279733      -1.82279733       1.82279733
C        1.92648426      -3.19464512       1.21884164
C        2.98156664      -3.43690092       0.31358356
C        3.13241845      -4.68197993      -0.29671570
C        2.23891040      -5.71176921      -0.02676825
C        1.18426966      -5.49072362       0.85879242
C        1.02339848      -4.24201097       1.47731446
I       -0.61643886      -4.05511900       2.77733161
H        1.41099005      -1.81728606       2.83402306
H        2.80052728      -1.33157058       1.87031810
H        3.68678309      -2.64109898       0.08060081
H        2.34941807      -6.68381601      -0.50029722
H        0.48970273      -6.30501637       1.05496011
C        4.22035626      -4.90120384      -1.21428432
C        5.13150419      -5.08480387      -1.98274804
Br       6.60475332      -5.38166958      -3.22528889
C       -0.00445707       0.01189536      -1.78238275
H       -0.66409135       0.67374010      -2.43557963
H        0.65740317      -0.63156657      -2.45157240
C       -0.90989263      -0.90692880      -0.91072765
C        0.90977584       0.90977584      -0.90977584
C       -0.00465871       1.77757030       0.00794375
H       -0.66225468       2.44313916      -0.64384735
H        0.64322798       2.43503045       0.67728295
C       -1.78241447       0.00034974      -0.00472694
H       -2.45427497      -0.65498947       0.64260836
H       -2.43311707       0.67328779      -0.65473579
C       -0.91132561       0.90220522       0.91563759
C       -0.01476271      -0.02253852       1.78660255
H       -0.67934791      -0.69751639       2.42135241
H        0.63392994       0.61504881       2.47327442
C        0.01484550      -1.77751727      -0.01636693
H        0.67870853      -2.42144646      -0.68295456
H       -0.62264859      -2.45592969       0.64226336
C        1.78714474       0.01002794       0.00389507
H        2.44202412       0.67113390       0.66197326
H        2.45385902      -0.65136977      -0.64189061
C        0.91606151      -0.90478549       0.90901405
