101
Properties=species:S:1:pos:R:3 pbc="F F F"
C        0.00000000       0.00000000       0.00000000
C        2.91190551       0.68065175      -7.23832747
C        1.63741523       1.03126638      -7.01666330
C        1.04421819       1.25808203      -5.66288327
N        1.07838853       2.69254897      -5.43046498
S        0.33285494       3.30039641      -4.05898921
O        0.68180264       4.69779626      -3.94426569
O       -1.04937335       2.87408732      -4.10897474
C        1.11997460       2.42715742      -2.72881705
C        0.30768935       1.62801206      -1.90677504
C        0.88120494       0.88120494      -0.88120494
C        2.25440936       0.92451538      -0.66086010
C        3.06054119       1.72899197      -1.46947990
C        2.50046487       2.48749532      -2.50642010
H        3.27554976       0.52606721      -8.25007820
H        3.62138271       0.55136564      -6.42655613
H        0.96484938       1.15255382      -7.86333430
H        1.63370355       0.73144681      -4.90555574
H        0.02153457       0.87089914      -5.63882651
H        1.93143736       3.19186886      -5.67951604
H       -0.76819178       1.58260762      -2.06838016
H        2.70790507       0.33869043       0.13550900
H        4.13280558       1.75261704      -1.28200066
C        3.42378059       3.26408516      -3.29254751
C        4.19705750       3.91447915      -3.95092922
Br       5.44738086       4.96611123      -5.01547676
C       -6.66723816      -0.05502482      -4.10862176
C       -5.58590840       0.53612207      -4.63555857
C       -4.19033375       0.35509232      -4.12994207
N       -3.57333357      -0.65806611      -4.97000280
S       -1.94191115      -0.98114264      -4.76918678
O       -1.61936419      -2.15087242      -5.55362799
O       -1.23955670       0.26935304      -4.96348505
C       -1.80611812      -1.41634303      -3.05348792
C       -0.98266879      -0.61565596      -2.24415170
C       -0.88120494      -0.88120494      -0.88120494
C       -1.58646800      -1.93851655      -0.31480030
C       -2.39488309      -2.74276886      -1.12136111
C       -2.50892430      -2.49023867      -2.49521732
H       -7.65459642       0.12628161      -4.52338036
H       -6.59587904      -0.73685847      -3.26656697
H       -5.70770617       1.20893146      -5.48196278
H       -4.21268536       0.02759097      -3.08561171
H       -3.65201252       1.30565067      -4.18489837
H       -4.12324129      -1.48697373      -5.19260723
H       -0.42623712       0.21635600      -2.67291488
H       -1.51483160      -2.14663447       0.75037957
H       -2.93823173      -3.56701408      -0.66217747
C       -3.38545256      -3.36586241      -3.22909829
C       -4.11954497      -4.09919729      -3.84372361
Br      -5.30651032      -5.28493777      -4.83752076
C       -7.43156150       2.10590023       1.29342301
C       -7.00219259       0.92453382       1.75861850
C       -5.56418455       0.53010358       1.87089537
N       -5.17149158       0.78242237       3.24748853
S       -3.65097749       0.29099833       3.75026475
O       -3.42045697       0.83430686       5.06910077
O       -3.56583773      -1.13196289       3.49981386
C       -2.54960815       1.10535495       2.62098597
C       -1.72617775       0.29596914       1.82032956
C       -0.88120494       0.88120494       0.88120494
C       -0.84249372       2.26420210       0.73308902
C       -1.65126837       3.06982077       1.53792391
C       -2.50784903       2.49803480       2.48849646
H       -8.49387523       2.32425645       1.23356350
H       -6.74256901       2.88220195       0.97453352
H       -7.73139327       0.17938793       2.06995630
H       -4.95944403       1.12891409       1.18234798
H       -5.44955527      -0.52512079       1.60682574
H       -5.47172357       1.65924073       3.67185797
H       -1.74699967      -0.78781889       1.92361522
H       -0.18814408       2.72587912      -0.00293671
H       -1.60706080       4.15018385       1.41017863
C       -3.31340061       3.41789271       3.24911993
C       -3.98805006       4.18827371       3.88614210
Br      -5.07890116       5.43391464       4.91615305
C        1.39477089      -7.44480930       1.99130455
C        1.87365433      -6.98451119       0.82717939
C        1.96594896      -5.53743583       0.46179870
N        3.32990482      -5.12403390       0.74746375
S        3.81280139      -3.58536895       0.29407022
O        5.11667894      -3.34067961       0.86650604
O        3.58732274      -3.47792101      -1.13155504
C        2.64785657      -2.52087251       1.10721999
C        1.84693056      -1.69728451       0.29826138
C        0.88120494      -0.88120494       0.88120494
C        0.70665170      -0.87150971       2.26162343
C        1.51154676      -1.68029784       3.06716845
C        2.48868607      -2.50802319       2.49767103
H        1.35102481      -8.51200580       2.18866456
H        1.04846289      -6.77673018       2.77411141
H        2.21259611      -7.69351613       0.07462526
H        1.25501788      -4.95709481       1.05859341
H        1.71944854      -5.40774064      -0.59592897
H        3.74349281      -5.43289553       1.62643393
H        1.97075785      -1.69560947      -0.78357131
H       -0.05012853      -0.23985901       2.72135602
H        1.36288852      -1.65898601       4.14554875
C        3.24719674      -3.31658055       3.41663597
C        3.88244942      -3.99374734       4.18626911
Br       4.90959929      -5.08866876       5.43070080
