154
Properties=species:S:1:pos:R:3 pbc="F F F"
C        3.30166891       4.74850975       1.65491841
C        4.80185942       4.58406194       1.85840737
C        5.49043464       3.84141953       0.70833609
C        5.43944658       4.61417476      -0.60700501
N        6.17433405       3.97936276      -1.73188730
C        7.62610535       4.24175874      -1.72244065
S        5.74469078       2.42024853      -2.26249077
O        6.34558512       2.17839586      -3.55605388
O        6.00629139       1.50714396      -1.16952533
C        3.98840266       2.52579694      -2.49167083
C        3.17695710       1.70117782      -1.69415708
C        1.79109861       1.79109861      -1.79109861
C        1.20320597       2.68797795      -2.67767704
C        2.01007531       3.49534513      -3.48236418
C        3.40687948       3.41792257      -3.39957711
H        2.84647301       5.18808746       2.54810800
H        2.82072896       3.78252579       1.46987501
H        3.08008001       5.41085814       0.81295140
H        4.96610840       4.01922933       2.78382874
H        5.26269248       5.56823315       1.99996987
H        5.00936748       2.86453030       0.60442556
H        6.53368944       3.65330750       0.98715341
H        5.84634105       5.62146124      -0.45120006
H        4.40381720       4.77080998      -0.92331803
H        7.81098460       5.31611835      -1.62087859
H        8.08216688       3.93559805      -2.66862875
H        8.11600614       3.71841572      -0.89742036
H        3.62334873       0.99818090      -0.99282701
H        0.12129796       2.76719450      -2.75296038
H        1.53529265       4.19066885      -4.17243766
C        4.14054573       4.30585253      -4.26381910
C        4.75499122       5.04949388      -4.98762177
Br       5.74849760       6.25189903      -6.15794946
C       -4.89273440      -3.10927857       1.60675272
C       -6.27350490      -2.54820504       1.29419594
C       -6.41436306      -2.05822318      -0.15093184
C       -6.30157575      -3.18851610      -1.17053450
N       -6.52422521      -2.77958171      -2.58177718
C       -7.94703260      -2.68340714      -2.95986501
S       -5.52463176      -1.60355843      -3.29923989
O       -5.70576332      -1.64020747      -4.73406408
O       -5.73714916      -0.36362099      -2.58219054
C       -3.88343550      -2.17736307      -2.94507187
C       -3.06471115      -1.35805410      -2.14952676
C       -1.79109861      -1.79109861      -1.79109861
C       -1.32014774      -3.02784087      -2.22087236
C       -2.12767467      -3.83449710      -3.02561286
C       -3.41197003      -3.41481996      -3.39758918
H       -4.81449621      -3.34482992       2.67287366
H       -4.10843930      -2.38597239       1.36103195
H       -4.69784965      -4.03120696       1.05106985
H       -6.46480891      -1.70379574       1.96709566
H       -7.03480402      -3.30634121       1.51018947
H       -5.64533433      -1.29987780      -0.32426008
H       -7.38356450      -1.55766464      -0.25861439
H       -7.02351263      -3.97605638      -0.91943334
H       -5.32104748      -3.66982075      -1.10707699
H       -8.47222396      -3.60085651      -2.67490107
H       -8.05494348      -2.58711252      -4.04433768
H       -8.42845232      -1.83299162      -2.47039829
H       -3.42203328      -0.39001935      -1.80230401
H       -0.32873835      -3.37410822      -1.93860626
H       -1.74438795      -4.79854085      -3.35547037
C       -4.16301175      -4.33109006      -4.21611557
C       -4.79200918      -5.09846627      -4.90163141
Br      -5.80904484      -6.33924871      -6.01005255
C        1.49122593       2.74615693       5.14032924
C        1.82953382       4.23086902       5.12617880
C        0.80929503       5.07639024       4.35642287
C       -0.56898013       5.07931049       5.01233573
N       -1.56998384       5.95983156       4.35576871
C       -1.46597241       7.37898230       4.74535004
S       -1.99382095       5.70672673       2.72688240
O       -3.20789312       6.43723933       2.43490240
O       -0.80681673       5.94394257       1.93220138
C       -2.37321323       3.97481842       2.65783879
C       -1.57443447       3.16567338       1.83218416
C       -1.79109861       1.79109861       1.79109861
C       -2.79825465       1.21302370       2.55758261
C       -3.60300156       2.01965976       3.36512330
C       -3.40060592       3.40533781       3.41843544
H        2.30216637       2.17962975       5.60898909
H        1.35386511       2.36344570       4.12379914
H        0.57881694       2.54683047       5.70997322
H        2.81152159       4.35797945       4.65505113
H        1.92048856       4.59598562       6.15545870
H        0.75343440       4.68726686       3.33563976
H        1.18739394       6.10273087       4.28450661
H       -0.47030651       5.38774340       6.06095244
H       -0.98090286       4.06640888       5.05063347
H       -1.44509661       7.46635479       5.83653014
H       -2.34125020       7.94022508       4.40491839
H       -0.56089763       7.83489823       4.33604637
H       -0.77980868       3.60390746       1.23064050
H       -2.96780257       0.13915772       2.53449255
H       -4.38807810       1.55286763       3.95745344
C       -4.27753901       4.13802503       4.29465332
C       -5.01197048       4.75165058       5.02848580
Br      -6.19948405       5.74383119       6.21503086
C        0.32069700      -0.06784469       6.00671857
C       -0.41064872      -1.15400501       6.78415771
C       -0.16830200      -2.56196063       6.22985944
C        1.28495188      -3.00797033       6.36770414
N        1.55330007      -4.40247496       5.92980907
C        1.22418351      -5.42223893       6.94388232
S        1.22711073      -4.87329035       4.32702901
O        1.88699469      -6.13276218       4.06027799
O       -0.20246514      -4.75768951       4.12773631
C        2.02783697      -3.62472084       3.35331263
C        1.21968630      -2.82530291       2.52730281
C        1.79109861      -1.79109861       1.79109861
C        3.15913057      -1.54730922       1.86242118
C        3.96460982      -2.35279972       2.67037508
C        3.40746261      -3.39924012       3.41767645
H        0.03022204       0.92054042       6.37677085
H        0.07803827      -0.11518062       4.94016084
H        1.40552216      -0.15480897       6.11765562
H       -1.48632613      -0.94516181       6.74267331
H       -0.11811430      -1.10970565       7.83936441
H       -0.47902329      -2.56742489       5.18107062
H       -0.82301782      -3.26443439       6.75842697
H        1.59690597      -2.90703331       7.41506307
H        1.94829615      -2.34241260       5.80723646
H        1.68667112      -5.16024145       7.90106897
H        1.62937036      -6.39782851       6.65919481
H        0.14334781      -5.50497857       7.08351586
H        0.14714060      -3.00179699       2.46541904
H        3.60994989      -0.73679887       1.29470407
H        5.03342738      -2.15079586       2.71417592
C        4.32705566      -4.15603130       4.22713041
C        5.09721484      -4.78984392       4.90504811
Br       6.34249710      -5.81466531       6.00118368
C       -0.00445707       0.01189536      -1.78238275
H       -0.66409135       0.67374010      -2.43557963
H        0.65740317      -0.63156657      -2.45157240
C       -0.90989263      -0.90692880      -0.91072765
C        0.90977584       0.90977584      -0.90977584
C       -0.00465871       1.77757030       0.00794375
H       -0.66225468       2.44313916      -0.64384735
H        0.64322798       2.43503045       0.67728295
C       -1.78241447       0.00034974      -0.00472694
H       -2.45427497      -0.65498947       0.64260836
H       -2.43311707       0.67328779      -0.65473579
C       -0.91132561       0.90220522       0.91563759
C       -0.01476271      -0.02253852       1.78660255
H       -0.67934791      -0.69751639       2.42135241
H        0.63392994       0.61504881       2.47327442
C        0.01484550      -1.77751727      -0.01636693
H        0.67870853      -2.42144646      -0.68295456
H       -0.62264859      -2.45592969       0.64226336
C        1.78714474       0.01002794       0.00389507
H        2.44202412       0.67113390       0.66197326
H        2.45385902      -0.65136977      -0.64189061
C        0.91606151      -0.90478549       0.90901405
