146
Properties=species:S:1:pos:R:3 pbc="F F F"
C        3.30166891       4.74850975       1.65491841
C        4.80185942       4.58406194       1.85840737
C        5.49043464       3.84141953       0.70833609
C        5.43944658       4.61417476      -0.60700501
N        6.17433405       3.97936276      -1.73188730
C        7.62610535       4.24175874      -1.72244065
S        5.74469078       2.42024853      -2.26249077
O        6.34558512       2.17839586      -3.55605388
O        6.00629139       1.50714396      -1.16952533
C        3.98840266       2.52579694      -2.49167083
C        3.17695710       1.70117782      -1.69415708
C        1.79109861       1.79109861      -1.79109861
C        1.20320597       2.68797795      -2.67767704
C        2.01007531       3.49534513      -3.48236418
C        3.40687948       3.41792257      -3.39957711
Br       4.37417463       4.58860521      -4.53902858
H        2.84647301       5.18808746       2.54810800
H        2.82072896       3.78252579       1.46987501
H        3.08008001       5.41085814       0.81295140
H        4.96610840       4.01922933       2.78382874
H        5.26269248       5.56823315       1.99996987
H        5.00936748       2.86453030       0.60442556
H        6.53368944       3.65330750       0.98715341
H        5.84634105       5.62146124      -0.45120006
H        4.40381720       4.77080998      -0.92331803
H        7.81098460       5.31611835      -1.62087859
H        8.08216688       3.93559805      -2.66862875
H        8.11600614       3.71841572      -0.89742036
H        3.62334873       0.99818090      -0.99282701
H        0.12129796       2.76719450      -2.75296038
H        1.53529265       4.19066885      -4.17243766
C       -3.22504072       1.63685266      -4.80707220
C       -2.68352050       1.35899102      -6.20298451
C       -2.17062462      -0.07433725      -6.37855620
C       -3.28045033      -1.11600667      -6.26416935
N       -2.85065232      -2.51547343      -6.51945836
C       -2.77347941      -2.86648834      -7.95033700
S       -1.64425376      -3.22920354      -5.55397278
O       -1.65872958      -4.66101978      -5.76028550
O       -0.42125582      -2.48624479      -5.77546007
C       -2.19453961      -2.91458925      -3.89674158
C       -1.37482002      -2.11902617      -3.07844582
C       -1.79109861      -1.79109861      -1.79109861
C       -3.01133089      -2.25139627      -1.30613381
C       -3.81803678      -3.05612194      -2.11362590
C       -3.41507392      -3.39764521      -3.41166004
Br      -4.62147475      -4.48072548      -4.39960819
H       -3.47800012       2.69699587      -4.70544822
H       -2.48345986       1.39036096      -4.04028084
H       -4.13330940       1.06125915      -4.60593650
H       -1.85475896       2.05030175      -6.39705178
H       -3.45897843       1.57472899      -6.94670633
H       -1.39557425      -0.24755681      -5.62634115
H       -1.68580510      -0.15577640      -7.35826203
H       -4.08521497      -0.86640045      -6.96738692
H       -3.74503395      -1.07863176      -5.27427950
H       -3.70516184      -2.58886109      -8.45395861
H       -2.65994231      -3.94696413      -8.07948723
H       -1.94069712      -2.35330179      -8.43784332
H       -0.41969601      -1.74811528      -3.44654534
H       -3.34460206      -1.99303912      -0.30381164
H       -4.76901036      -3.41006132      -1.71932749
C        0.05301733       5.99859051       0.44968707
C       -1.00020017       6.81484280      -0.28752898
C       -2.42456627       6.28625273      -0.08730093
C       -2.89902947       6.40280934       1.35878754
N       -4.30803941       5.98972296       1.58782174
C       -5.29860070       7.03249839       1.25920566
S       -4.80564745       4.40485998       1.21692265
O       -6.08455743       4.15157240       1.84390503
O       -4.66326236       4.23356289      -0.21386457
C       -3.59578030       3.38741444       2.02267570
C       -2.79673831       2.56160272       1.21395098
C       -1.79109861       1.79109861       1.79109861
C       -1.57564462       1.82798133       3.16523502
C       -2.38108246       2.63593434       3.97076783
C       -3.39902660       3.41749297       3.40785959
Br      -4.39999953       4.48011067       4.62169823
H        1.05513323       6.35316504       0.18842066
H       -0.01171415       4.93871834       0.18294725
H       -0.05512971       6.08828541       1.53457163
H       -0.76895177       6.79172422      -1.35916699
H       -0.93982963       7.86237404       0.02875209
H       -2.44558776       5.24467911      -0.42079465
H       -3.10123578       6.84377707      -0.74516932
H       -2.78263663       7.44085198       1.69551374
H       -2.26012521       5.81401856       2.02380144
H       -5.02641299       7.97370631       1.74786225
H       -6.28860449       6.76053029       1.63725890
H       -5.35483450       7.19686249       0.18014524
H       -2.95115098       2.52640454       0.13680111
H       -0.78738891       1.23331510       3.62074881
H       -2.20147552       2.65258271       5.04434094
C        5.30514036       1.38489115       2.47501103
C        5.36608095       1.78236176       3.94379481
C        4.59203946       0.82942151       4.86090013
C        5.19209162      -0.57366659       4.89486814
N        4.53326980      -1.51070517       5.84160914
C        4.98522220      -1.36650324       7.23857931
S        2.87969811      -1.87634795       5.67138402
O        2.57015037      -3.04720195       6.46268254
O        2.14345117      -0.64889293       5.89061658
C        2.72380991      -2.32122942       3.96083111
C        1.89776971      -1.52174860       3.15277369
C        1.79109861      -1.79109861       1.79109861
C        2.49221803      -2.85140968       1.22523325
C        3.29983247      -3.65619725       2.03175491
C        3.41860223      -3.40115710       3.40461984
Br       4.56595521      -4.56487671       4.37097651
H        5.78182182       2.15248260       1.85711325
H        4.26894497       1.27468490       2.13911967
H        5.82923157       0.44242161       2.29117679
H        4.94011843       2.78733166       4.04872222
H        6.41242680       1.84500903       4.26353800
H        3.55457821       0.80050161       4.51539562
H        4.57787927       1.25075690       5.87272116
H        6.25569820      -0.50637309       5.15693106
H        5.17189925      -1.02683989       3.89920607
H        6.07905243      -1.38744931       7.28147981
H        4.63377496      -2.20385555       7.84876317
H        4.63155836      -0.42778757       7.67249630
H        1.34705137      -0.68602836       3.58127691
H        2.41786408      -3.06249085       0.16109791
H        3.84054815      -4.48313929       1.57471173
C       -0.00445707       0.01189536      -1.78238275
H       -0.66409135       0.67374010      -2.43557963
H        0.65740317      -0.63156657      -2.45157240
C       -0.90989263      -0.90692880      -0.91072765
C        0.90977584       0.90977584      -0.90977584
C       -0.00465871       1.77757030       0.00794375
H       -0.66225468       2.44313916      -0.64384735
H        0.64322798       2.43503045       0.67728295
C       -1.78241447       0.00034974      -0.00472694
H       -2.45427497      -0.65498947       0.64260836
H       -2.43311707       0.67328779      -0.65473579
C       -0.91132561       0.90220522       0.91563759
C       -0.01476271      -0.02253852       1.78660255
H       -0.67934791      -0.69751639       2.42135241
H        0.63392994       0.61504881       2.47327442
C        0.01484550      -1.77751727      -0.01636693
H        0.67870853      -2.42144646      -0.68295456
H       -0.62264859      -2.45592969       0.64226336
C        1.78714474       0.01002794       0.00389507
H        2.44202412       0.67113390       0.66197326
H        2.45385902      -0.65136977      -0.64189061
C        0.91606151      -0.90478549       0.90901405
