185
Properties=species:S:1:pos:R:3 pbc="F F F"
C        0.00000000       0.00000000       0.00000000
C        9.75852633       5.07357897       2.61591634
S        9.55398991       3.35121264       2.10419124
C        8.32732533       3.55510617       0.83101040
N        8.32465483       2.61885548      -0.13017143
C        7.41943089       2.69297371      -1.11850985
N        7.51234146       1.70520392      -2.09656246
C        6.46606688       3.72692225      -1.11643633
C        6.59291935       4.62911125      -0.07255461
N        7.50123056       4.59859242       0.91173197
S        5.45108030       5.88164972      -0.13526951
C        4.66157379       5.19097707      -1.49167398
C        3.40520952       5.83924871      -2.03511695
H        3.69233324       6.86847929      -2.29374559
S        2.84616880       5.11548936      -3.63206396
C        3.37964475       3.36272964      -3.44420939
H        3.22040147       2.91541531      -4.43488072
C        4.90512660       3.34297645      -3.20814694
C        5.34038239       4.07427991      -1.96425742
C        2.51662687       2.51943461      -2.50308411
C        1.11500198       2.66225553      -2.49260941
C        0.30529758       1.86430880      -1.67726846
C        0.88148774       0.88148774      -0.88148774
C        2.25702185       0.69068791      -0.89495157
C        3.06551467       1.50045670      -1.69982408
C        2.23343261       5.94271779      -1.05941727
C        1.33681164       7.02225167      -1.18132572
C        0.25105211       7.15930056      -0.31229563
C        0.04547003       6.21420595       0.68830622
Br      -1.41776848       6.39971904       1.86862343
C        0.91052343       5.13277003       0.82283307
C        1.99523394       4.99594314      -0.04879955
H       10.53875878       5.12661605       3.38061796
H        8.83448495       5.47066953       3.04561772
H       10.06593764       5.69290081       1.76824698
H        8.36849408       1.17899990      -1.93316845
H        7.44733065       2.07469013      -3.03681841
H        5.41264072       3.81390101      -4.06216929
H        5.25541117       2.30789313      -3.20223655
H        0.62656438       3.40767380      -3.11738727
H       -0.77105829       2.01823447      -1.67838212
H        2.71515183      -0.08859118      -0.29245283
H        4.13379693       1.29736426      -1.68272475
H        1.47853453       7.76763631      -1.96246462
H       -0.42419449       8.00280586      -0.42649656
H        0.75298087       4.38782070       1.59901811
H        2.64925333       4.13601859       0.07783377
C       -7.06296557      -8.26210726       3.10888387
S       -7.42431021      -6.49020087       3.11349977
C       -6.63128379      -6.01342071       1.59328340
N       -7.13605292      -4.92681332       0.98918449
C       -6.58318450      -4.49320951      -0.15452044
N       -7.19326221      -3.38421721      -0.73662843
C       -5.46426655      -5.15923435      -0.68592457
C       -5.05692278      -6.27111898       0.03345655
N       -5.60389105      -6.74504368       1.16084373
S       -3.73340857      -7.06698996      -0.66760100
C       -3.57483684      -5.87723648      -1.89215153
C       -2.43029124      -5.96943156      -2.87985239
H       -2.53872182      -6.94918217      -3.36665412
S       -2.56563344      -4.76417359      -4.26391510
C       -3.40318432      -3.34921469      -3.43418477
H       -3.66016524      -2.66019965      -4.25033261
C       -4.74616355      -3.84964752      -2.86043892
C       -4.60218062      -4.94329482      -1.83344428
C       -2.51185893      -2.52232531      -2.50496136
C       -1.18010701      -2.22987594      -2.85988397
C       -0.36599225      -1.43233315      -2.04854944
C       -0.88148774      -0.88148774      -0.88148774
C       -2.20102020      -1.12094802      -0.52069310
C       -3.00811807      -1.93144991      -1.32622746
C       -1.02607834      -5.93173489      -2.27775443
C        0.01306150      -6.62878294      -2.92466760
C        1.31295371      -6.62389227      -2.41170973
C        1.59125387      -5.91674658      -1.24587704
Br       3.34604737      -5.91300910      -0.54636540
C        0.58470654      -5.21121640      -0.59395054
C       -0.71495761      -5.21539656      -1.10962246
H       -7.53925771      -8.72396674       3.97846757
H       -5.98681738      -8.44623790       3.17351851
H       -7.46346482      -8.73411719       2.20699055
H       -8.05558653      -3.19591709      -0.22915881
H       -7.33488224      -3.49060761      -1.73334933
H       -5.36759579      -4.24394958      -3.67716565
H       -5.30534585      -3.00072352      -2.45947149
H       -0.74804737      -2.62713867      -3.77643940
H        0.66405388      -1.24656233      -2.34304984
H       -2.61960253      -0.67804517       0.37863421
H       -4.03709514      -2.07296796      -1.00382283
H       -0.18511043      -7.18211990      -3.84140513
H        2.09570074      -7.17191470      -2.92889397
H        0.79609515      -4.65232880       0.31445020
H       -1.47805456      -4.64857717      -0.58080642
C      -11.05499727      -0.98878465       2.14997634
S       -9.72213039      -1.89316707       2.97204799
C       -8.51858543      -0.59097003       3.12380571
N       -7.65043634      -0.71600433       4.13924973
C       -6.70133807       0.21726976       4.31230660
N       -5.86795513       0.03278068       5.41337203
C       -6.60630469       1.29244134       3.41067943
C       -7.57325830       1.30292586       2.41840105
N       -8.54897952       0.40324200       2.23586949
S       -7.44642439       2.63951970       1.38205543
C       -6.01195139       3.18646106       2.14581240
C       -5.28720597       4.39711056       1.59525865
H       -6.02058658       5.21581248       1.61815906
S       -3.92472879       4.98570721       2.68328613
C       -3.34852984       3.40515872       3.43289523
H       -2.64288787       3.71007414       4.21773549
C       -4.54145454       2.75172149       4.16307396
C       -5.70121951       2.41712489       3.26057531
C       -2.52271753       2.51072818       2.50569989
C       -1.57455300       3.06936744       1.62594647
C       -0.77361794       2.26503242       0.80822447
C       -0.88148774       0.88148774       0.88148774
C       -1.78114604       0.29770517       1.76381011
C       -2.59157637       1.10500934       2.56920973
C       -4.80198868       4.28307532       0.15050366
C       -4.73509685       5.44633265      -0.64104046
C       -4.29825684       5.39172694      -1.96733548
C       -3.91778828       4.17163437      -2.51805289
Br      -3.33255665       4.09325688      -4.31248641
C       -3.96436919       3.00988625      -1.75379504
C       -4.39971197       3.06653199      -0.42626733
H      -11.91332116      -1.65547787       2.02691358
H      -10.74679870      -0.64557448       1.15831254
H      -11.36902018      -0.13281741       2.75438869
H       -6.24431418      -0.73277672       5.96912497
H       -5.72935899       0.88068360       5.94879659
H       -4.91388521       3.43620778       4.93861804
H       -4.19281070       1.86862325       4.70410691
H       -1.44778558       4.14805830       1.55578157
H       -0.06854079       2.73211825       0.12489926
H       -1.85828266      -0.78295807       1.84368889
H       -3.26697863       0.59482723       3.25208008
H       -5.02271030       6.41057104      -0.22464588
H       -4.25850444       6.30350281      -2.55689933
H       -3.66369937       2.05406980      -2.17598571
H       -4.41818607       2.14225959       0.14699249
C        7.40448735       3.13537599       7.94707760
S        5.61583084       2.97321455       8.15839502
C        5.33027033       1.49236273       7.21351351
N        4.26227550       0.76626325       7.57766949
C        3.96964582      -0.35725475       6.90401387
N        2.86945792      -1.07202943       7.37262049
C        4.76198534      -0.74040109       5.80703903
C        5.83795348       0.09404174       5.55067347
N        6.17246078       1.20494814       6.22057837
S        6.78923983      -0.43055769       4.24820201
C        5.72172795      -1.72561544       3.89688146
C        5.98405491      -2.60418405       2.69133622
H        6.98977108      -3.02138261       2.84340442
S        4.89181473      -4.08347133       2.61843607
C        3.35215452      -3.43814320       3.39628607
H        2.71598831      -4.32357318       3.53113600
C        3.69790732      -2.94175301       4.81658967
C        4.70975879      -1.82509935       4.84406157
C        2.52168120      -2.50419944       2.51326497
C        2.36341618      -2.76809372       1.13835702
C        1.56599828      -1.95546400       0.32541256
C        0.88148774      -0.88148774       0.88148774
C        0.98755821      -0.61482233       2.24028078
C        1.79790741      -1.42010448       3.04778355
C        6.00451784      -1.89157283       1.33947699
C        6.83118182      -2.39375409       0.31545313
C        6.88364591      -1.77589285      -0.93689046
C        6.10512706      -0.64886252      -1.18261982
Br       6.17820883       0.19243888      -2.87244282
C        5.27212889      -0.13963106      -0.19129955
C        5.21920324      -0.76022447       1.06054892
H        7.75399373       3.99512482       8.52588796
H        7.66496115       3.30369349       6.89826910
H        7.91792482       2.24224338       8.31491002
H        2.57352188      -0.65440702       8.25273353
H        3.04751950      -2.06592353       7.44539614
H        4.10999807      -3.77471853       5.40399443
H        2.77788961      -2.65552832       5.33212292
H        2.86797961      -3.61199453       0.67165130
H        1.48542034      -2.17631338      -0.73617542
H        0.44012852       0.20957064       2.68845561
H        1.83227040      -1.17485288       4.10676266
H        7.44225245      -3.27846273       0.48792028
H        7.53165168      -2.18209243      -1.70863618
H        4.65725872       0.73747128      -0.37800398
H        4.55306489      -0.34227537       1.81209789
