165
Properties=species:S:1:pos:R:3 pbc="F F F"
C        0.00000000       0.00000000       0.00000000
C        0.88191540       0.88191540      -0.88191540
C        0.44526987       1.23728707      -2.15648521
C        1.25888896       2.03107747      -2.96770250
C        2.50496572       2.47479549      -2.50341377
C        2.93147301       2.11560323      -1.22014402
C        2.11944869       1.31720689      -0.40914179
C        3.36789176       3.26801981      -3.38129994
C        3.31195604       4.60641122      -3.43953003
C        2.42439412       5.57529140      -2.71018526
H        1.43522708       5.12533557      -2.56214179
C        2.99939333       6.03487394      -1.36608155
C        2.11884004       6.36104997      -0.31827026
C        2.59762473       6.83681670       0.90617652
C        3.96639615       6.99653060       1.10869499
C        4.85090519       6.68194285       0.08323202
C        4.37985876       6.21034595      -1.14479651
N        2.29579817       6.69745967      -3.62720045
C        1.22537697       7.57206899      -3.60102862
N        0.17716825       7.38871828      -2.82525645
C       -0.74792904       8.39212678      -3.03879975
C       -0.38177023       9.34824685      -3.95875606
S        1.16161434       8.96624553      -4.58866636
C        3.30460348       6.72313845      -4.57456533
O        3.56522300       7.51108325      -5.46137453
C        4.08399682       5.42221514      -4.39729618
O        5.16121379       5.18607489      -4.90069755
O        4.19872189       2.53559564      -4.19572817
H       -0.51679671       0.89632877      -2.53005054
H        0.91742603       2.29303749      -3.96846477
H        3.90027617       2.44249926      -0.84668170
H        2.46315866       1.03534174       0.58300574
H        1.04189926       6.26672024      -0.45528890
H        1.90007266       7.09420111       1.69913214
H        4.33124491       7.37310238       2.06129063
H        5.10905992       5.98994546      -1.92137989
H       -1.68410768       8.38104817      -2.49219683
H       -0.92843985      10.22089678      -4.28488677
H        4.11603553       1.58922914      -3.97334354
C        6.26664936       6.85068686       0.28520698
C        7.45233511       6.99200997       0.45436101
Br       9.36948868       7.22051749       0.72786877
C       -0.88191540      -0.88191540      -0.88191540
C       -2.25264214      -0.94624231      -0.64015769
C       -3.05578394      -1.76447535      -1.43740964
C       -2.49083186      -2.51287800      -2.47946511
C       -1.11388378      -2.43722834      -2.71610814
C       -0.30851984      -1.62176622      -1.91551131
C       -3.33705089      -3.40195144      -3.27820918
C       -3.97080917      -2.99835233      -4.38873578
C       -4.00686611      -1.65053887      -5.05246579
H       -3.96968359      -0.86503266      -4.28798820
C       -2.88278492      -1.44416425      -6.07339965
C       -2.37036040      -0.14984854      -6.27795132
C       -1.38336306       0.09308915      -7.23799100
C       -0.88814992      -0.95254368      -8.01353815
C       -1.38515100      -2.23748765      -7.82697737
C       -2.37479881      -2.48741396      -6.87278845
N       -5.30795027      -1.61021936      -5.70228865
C       -5.96057414      -0.43027137      -6.00762907
N       -5.51352426       0.74804556      -5.62566427
C       -6.38562266       1.73793076      -6.03530559
C       -7.47824258       1.30442343      -6.75141353
S       -7.41936142      -0.39838743      -6.89877738
C       -5.84684476      -2.87224341      -5.88321910
O       -6.86959815      -3.24871663      -6.41936601
C       -4.92110962      -3.83675321      -5.14564530
O       -4.94775933      -5.04362978      -5.25659712
O       -3.49058231      -4.66990879      -2.76955460
H       -2.70250077      -0.37436188       0.16728005
H       -4.12441255      -1.82101972      -1.23349603
H       -0.65623424      -3.01893961      -3.51428329
H        0.76178438      -1.57646326      -2.10081577
H       -2.75409042       0.69121933      -5.70103732
H       -1.00890218       1.10239136      -7.38863080
H       -0.12518443      -0.75514896      -8.76272327
H       -2.74188151      -3.50647716      -6.77202660
H       -6.17688058       2.77163583      -5.78389257
H       -8.28417191       1.88401276      -7.17718454
H       -2.92137011      -4.77330897      -1.98392912
C       -0.88089223      -3.32117473      -8.63006229
C       -0.45857550      -4.22876267      -9.30264590
Br       0.22427493      -5.69625560     -10.39015673
C       -0.88191540       0.88191540       0.88191540
C       -0.53633525       1.08656097       2.21614592
C       -1.35140709       1.88070998       3.02555186
C       -2.50737020       2.47516357       2.50064121
C       -2.84241138       2.26652631       1.15828257
C       -2.02933057       1.46793660       0.34853019
C       -3.37756306       3.26767216       3.37197630
C       -3.21442077       4.58546882       3.55800771
C       -2.18469488       5.52640388       2.99877201
H       -1.22763086       5.00118310       2.89389048
C       -2.59230476       6.14895217       1.65909190
C       -1.59441084       6.47977212       0.72397731
C       -1.91623988       7.09939227      -0.48736724
C       -3.24207827       7.40129255      -0.78913907
C       -4.24085550       7.08422218       0.12453834
C       -3.92668241       6.46915089       1.33916792
N       -2.04698919       6.55044916       4.02301993
C       -0.90870511       7.32159624       4.16817324
N        0.18739047       7.10844514       3.47008830
C        1.17024278       8.00055035       3.85268992
C        0.80278712       8.90527007       4.82274973
S       -0.81887215       8.61553333       5.28212075
C       -3.13314378       6.58903985       4.88012363
O       -3.40703135       7.31996321       5.81068623
C       -3.99990866       5.38524530       4.51835418
O       -5.13506840       5.20787892       4.90503890
O       -4.33888858       2.54891417       4.04224295
H        0.35490036       0.62793548       2.63654748
H       -1.08287714       2.02458496       4.07146619
H       -3.74152764       2.71181311       0.73611638
H       -2.30256595       1.30379278      -0.69086408
H       -0.54654333       6.27520984       0.94215524
H       -1.12924213       7.35733095      -1.19143146
H       -3.48433523       7.88902409      -1.73030265
H       -4.74044631       6.25220938       2.02772959
H        2.14858332       7.94930624       3.38841440
H        1.38875085       9.69306587       5.27302868
H       -4.31624153       1.62112969       3.74123699
C       -5.61258524       7.39937138      -0.17982738
C       -6.76140890       7.66330883      -0.43473367
Br      -8.61895960       8.09007338      -0.84689558
C        0.88191540      -0.88191540       0.88191540
C        2.08480841      -1.37434865       0.37988509
C        2.88308462      -2.19288521       1.18169911
C        2.48295722      -2.51391285       2.48630491
C        1.27524219      -2.01024358       2.98173449
C        0.47336325      -1.19440153       2.17803259
C        3.30682529      -3.41043151       3.29995472
C        4.29499653      -2.97057374       4.09232702
C        4.80153446      -1.57617814       4.33215817
H        4.72271130      -0.99385807       3.40613508
C        4.07630122      -0.85234612       5.47170148
C        3.93026277       0.54586310       5.41376060
C        3.32434367       1.25285544       6.45677668
C        2.85192939       0.57704223       7.57934459
C        2.99052252      -0.80425752       7.65483598
C        3.59905152      -1.51727808       6.61867162
N        6.20905491      -1.76039396       4.65100941
C        7.15763647      -0.77106340       4.46977471
N        6.88520981       0.37479311       3.88072626
C        8.02759772       1.14753693       3.80293671
C        9.15683309       0.59160383       4.36000342
S        8.77802565      -0.95528196       4.98321862
C        6.49378333      -3.05317740       5.05534655
O        7.51984944      -3.57483277       5.44299858
C        5.21558064      -3.85747778       4.83044972
O        5.01294829      -4.97142713       5.26361081
O        3.03798342      -4.74945471       3.14260757
H        2.40446742      -1.13647092      -0.63135575
H        3.81521527      -2.58608378       0.77762925
H        0.94361110      -2.25714922       3.98869681
H       -0.46790817      -0.81525022       2.56815260
H        4.30959907       1.10355673       4.55786607
H        3.23153367       2.33430132       6.39790927
H        2.38755798       1.13406106       8.38955974
H        3.69670470      -2.59513939       6.72854119
H        7.98363218       2.11976723       3.32527237
H       10.15388483       1.00190041       4.42535928
H        2.26470627      -4.85651418       2.55738776
C        2.50913210      -1.50730448       8.81569266
C        2.10596762      -2.09610632       9.78791013
Br       1.45408477      -3.04814909      11.35990354
