186
Properties=species:S:1:pos:R:3 pbc="F F F"
C        1.79181943       1.79181943      -1.79181943
C        1.35517389       2.14719109      -3.06638923
C        2.16879299       2.94098150      -3.87760652
C        3.41486974       3.38469952      -3.41331779
C        3.84137704       3.02550725      -2.13004804
C        3.02935271       2.22711092      -1.31904581
C        4.27779579       4.17792383      -4.29120397
C        4.22186006       5.51631525      -4.34943405
C        3.33429814       6.48519542      -3.62008928
H        2.34513111       6.03523960      -3.47204581
C        3.90929736       6.94477796      -2.27598557
C        3.02874406       7.27095400      -1.22817428
C        3.50752876       7.74672072      -0.00372750
C        4.87630017       7.90643462       0.19879097
C        5.76080921       7.59184688      -0.82667200
C        5.28976278       7.12024998      -2.05470053
N        3.20570220       7.60736370      -4.53710447
C        2.13528100       8.48197301      -4.51093265
N        1.08707227       8.29862230      -3.73516047
C        0.16197499       9.30203081      -3.94870377
C        0.52813380      10.25815087      -4.86866008
S        2.07151836       9.87614955      -5.49857039
C        4.21450751       7.63304248      -5.48446936
O        4.47512703       8.42098728      -6.37127856
C        4.99390085       6.33211916      -5.30720021
O        6.07111782       6.09597891      -5.81060157
O        5.10862591       3.44549967      -5.10563220
H        0.39310731       1.80623280      -3.43995456
H        1.82733006       3.20294152      -4.87836880
H        4.81018020       3.35240329      -1.75658572
H        3.37306268       1.94524576      -0.32689828
H        1.95180328       7.17662427      -1.36519293
H        2.80997668       8.00410513       0.78922812
H        5.24114894       8.28300640       1.15138661
H        6.01896395       6.89984949      -2.83128391
H       -0.77420366       9.29095219      -3.40210085
H       -0.01853583      11.13080081      -5.19479079
H        5.02593955       2.49913316      -4.88324756
C        7.17655339       7.76059089      -0.62469704
C        8.36223914       7.90191400      -0.45554301
Br      10.27939271       8.13042151      -0.18203525
C       -1.79181943      -1.79181943      -1.79181943
C       -3.15351645      -1.89877103      -1.51646674
C       -3.95611127      -2.71714609      -2.31412364
C       -3.39986345      -3.42306100      -3.38996261
C       -2.03210649      -3.30476152      -3.66006433
C       -1.22713049      -2.48918299      -2.85919596
C       -4.24371238      -4.31333346      -4.18987775
C       -4.91697944      -3.89811067      -5.27251925
C       -5.00552058      -2.53500695      -5.89905532
H       -4.96838191      -1.76883561      -5.11519900
C       -3.91467379      -2.27249479      -6.94289231
C       -3.44152846      -0.96016384      -7.12618004
C       -2.48699973      -0.66633112      -8.10464614
C       -1.98567176      -1.67802074      -8.92025133
C       -2.44412471      -2.98011112      -8.75509226
C       -3.40127666      -3.28084667      -7.78258996
N       -6.32401546      -2.51246276      -6.51369214
C       -7.01483504      -1.34276198      -6.77058964
N       -6.58843702      -0.16326388      -6.36915414
C       -7.49643266       0.81337356      -6.72965047
C       -8.59610639       0.36966988      -7.42850824
S       -8.49711702      -1.32659216      -7.62252912
C       -6.83468840      -3.78325237      -6.71407858
O       -7.86123892      -4.17276199      -7.23339195
C       -5.86503812      -4.74159287      -6.02658922
O       -5.86338672      -5.94547610      -6.16883548
O       -4.35081515      -5.59765950      -3.71128312
H       -3.59641472      -1.36012832      -0.68275164
H       -5.01712468      -2.80731605      -2.08419963
H       -1.58092221      -3.85326103      -4.48498597
H       -0.16365738      -2.41068374      -3.07086561
H       -3.83143313      -0.14479694      -6.51739041
H       -2.14291571       0.35612235      -8.23806033
H       -1.24824096      -1.44110726      -9.68342051
H       -3.73905998      -4.31156773      -7.69946964
H       -7.30790448       1.84540696      -6.45635187
H       -9.42778978       0.93846883      -7.81773481
H       -3.75844890      -5.70619710      -2.94367428
C       -1.93350413      -4.02887594      -9.59946125
C       -1.50585939      -4.90721647     -10.30662028
Br      -0.81439403      -6.32741882     -11.45003662
C       -1.79181943       1.79181943       1.79181943
C       -1.40311750       2.06367063       3.10196609
C       -2.21756209       2.85762310       3.91219582
C       -3.41623109       3.38484581       3.41181015
C       -3.79456549       3.10909027       2.09327658
C       -2.98194232       2.31061254       1.28295459
C       -4.28323126       4.17752349       4.28616884
C       -4.16650645       5.50712962       4.41397330
C       -3.19831969       6.46401645       3.77724671
H       -2.22556825       5.97264827       3.65420000
C       -3.68268808       7.01541491       2.43195790
C       -2.73619622       7.34667866       1.44499747
C       -3.12980270       7.90369521       0.22447907
C       -4.47753242       8.14125415      -0.03484274
C       -5.42629828       7.82281509       0.93021472
C       -5.04039205       7.27017517       2.15414607
N       -3.06244256       7.53331420       4.75441361
C       -1.95155609       8.35345504       4.82317553
N       -0.87574193       8.15503786       4.09007526
C        0.08430395       9.09951510       4.39749842
C       -0.28145633      10.02780645       5.34568197
S       -1.87092022       9.69398869       5.88132938
C       -4.11506431       7.56427840       5.65267663
O       -4.38189941       8.32109148       6.56440197
C       -4.94576355       6.31396978       5.37348689
O       -6.05688159       6.10834576       5.81247095
O       -5.18780557       3.44962596       5.02232624
H       -0.47833215       1.65751623       3.50344630
H       -1.91455424       3.05411487       4.93997126
H       -4.72674720       3.50154864       1.69087336
H       -3.28857282       2.09396495       0.26266895
H       -1.67319821       7.19209062       1.62833166
H       -2.38192184       8.16334303      -0.52041118
H       -4.77582556       8.58063876      -0.98369559
H       -5.81726194       7.04978906       2.88304635
H        1.04509352       9.06763828       3.89630462
H        0.28919125      10.85542506       5.74082196
H       -5.13931788       2.51199162       4.75701077
C       -6.82048475       8.07170965       0.66964692
C       -7.98811592       8.28015884       0.45142139
Br      -9.87607677       8.61720355       0.09856915
C        1.79181943      -1.79181943       1.79181943
C        3.17817675      -1.67462999       1.71594748
C        3.98383363      -2.49192597       2.51162140
C        3.40471381      -3.42107127       3.38710197
C        2.01138219      -3.52714528       3.45840487
C        1.20424448      -2.71241239       2.65885257
C        4.26145583      -4.30367860       4.18178916
C        4.71442345      -3.97338985       5.39979606
C        4.51021777      -2.72234137       6.20702371
H        4.46039898      -1.85715881       5.53485873
C        3.26385439      -2.76874465       7.09746185
C        2.57584139      -1.57393978       7.37809118
C        1.46684139      -1.56167652       8.22945907
C        1.02258240      -2.74330389       8.81805753
C        1.69224693      -3.93278846       8.55429270
C        2.80408235      -3.95237651       7.70825444
N        5.71691391      -2.61993681       7.01331964
C        6.18094672      -1.42229642       7.52494352
N        5.63624868      -0.26212240       7.22248396
C        6.32877981       0.75930181       7.84323157
C        7.38123428       0.36329330       8.63700377
S        7.51768027      -1.34073478       8.58782325
C        6.38465176      -3.82768736       7.11968023
O        7.38093263      -4.15286086       7.73359938
C        5.67214011      -4.78940301       6.17167709
O        5.83557015      -5.99042885       6.15169930
O        4.62570168      -5.47431745       3.55973865
H        3.63983873      -0.96125935       1.03819660
H        5.06713663      -2.40496030       2.43654344
H        1.54427173      -4.24992153       4.12497594
H        0.12272615      -2.80834580       2.71413477
H        2.91362978      -0.63089297       6.94909773
H        0.95608578      -0.62611239       8.44265552
H        0.16334279      -2.72523027       9.48419567
H        3.30328535      -4.90455044       7.54226156
H        6.02264281       1.78690578       7.68311236
H        8.05750859       0.97081090       9.22035808
H        4.16351792      -5.54165755       2.70314481
C        1.24074840      -5.15634736       9.16474556
C        0.86261838      -6.18107794       9.67599983
Br       0.25121412      -7.83798062      10.50265474
C       -0.00445707       0.01189536      -1.78238275
H       -0.66409135       0.67374010      -2.43557963
H        0.65740317      -0.63156657      -2.45157240
C       -0.90989263      -0.90692880      -0.91072765
C        0.90977584       0.90977584      -0.90977584
C       -0.00465871       1.77757030       0.00794375
H       -0.66225468       2.44313916      -0.64384735
H        0.64322798       2.43503045       0.67728295
C       -1.78241447       0.00034974      -0.00472694
H       -2.45427497      -0.65498947       0.64260836
H       -2.43311707       0.67328779      -0.65473579
C       -0.91132561       0.90220522       0.91563759
C       -0.01476271      -0.02253852       1.78660255
H       -0.67934791      -0.69751639       2.42135241
H        0.63392994       0.61504881       2.47327442
C        0.01484550      -1.77751727      -0.01636693
H        0.67870853      -2.42144646      -0.68295456
H       -0.62264859      -2.45592969       0.64226336
C        1.78714474       0.01002794       0.00389507
H        2.44202412       0.67113390       0.66197326
H        2.45385902      -0.65136977      -0.64189061
C        0.91606151      -0.90478549       0.90901405
