149
Properties=species:S:1:pos:R:3 pbc="F F F"
C        0.00000000       0.00000000       0.00000000
C        0.88209582       0.88209582      -0.88209582
C        2.16566978       1.21458584      -0.46119337
C        2.97067796       2.01928338      -1.26981554
C        2.50094162       2.50089158      -2.50658636
C        1.20169598       2.15587751      -2.91034978
C        0.39608153       1.34856926      -2.10198315
C        3.37472447       3.38464259      -3.38400587
H        2.86397383       3.59302814      -4.33266877
N        4.66708816       2.69894154      -3.73391070
C        5.53834746       3.51090269      -3.18903421
S        7.22988674       3.16592979      -3.34765752
N        5.07210985       4.60237009      -2.48972475
C        5.52266318       5.97195522      -2.76709572
H        6.28141918       5.99944057      -3.55940079
N        4.34169800       6.75781795      -3.27984168
C        3.38562170       5.86650216      -3.18296686
S        1.77707215       6.28323000      -3.67832883
N        3.69305268       4.62799250      -2.66904482
C        6.10197404       6.56933377      -1.49008245
C        5.28872680       7.23702463      -0.55689571
C        5.82292112       7.73715729       0.63433346
C        7.17611161       7.56521054       0.90833637
C        7.99997678       6.90061777       0.00378467
C        7.46497897       6.40425858      -1.18967447
H        2.55085152       0.85612875       0.48980737
H        3.97217703       2.27320374      -0.92769554
H        0.80394247       2.51183667      -3.85895141
H       -0.60696530       1.08971918      -2.43213255
H        7.04953267       2.02496065      -4.02937725
H        2.07938751       7.54829869      -4.00137630
H        4.22666772       7.37084117      -0.74584016
H        5.17313605       8.25106210       1.33748833
H        9.05596765       6.75800753       0.21811442
H        8.12411135       5.88026593      -1.87863266
C        7.72615641       8.07281773       2.13853378
C        8.18681892       8.49793874       3.16882411
Br       8.93167125       9.18532348       4.83471643
C       -0.88209582      -0.88209582      -0.88209582
C       -2.14937021      -1.25019659      -0.44188219
C       -2.95446101      -2.05481965      -1.25049623
C       -2.50106167      -2.50077504      -2.50658285
C       -1.21801967      -2.12017914      -2.92972445
C       -0.41238217      -1.31292847      -2.12132331
C       -3.37471537      -3.38444662      -3.38421095
H       -2.87988674      -3.56238285      -4.34740116
N       -4.68805321      -2.71906842      -3.69281876
C       -5.53067774      -3.56029780      -3.14730882
S       -7.23194828      -3.24786582      -3.26365995
N       -5.02736007      -4.65589950      -2.48094513
C       -5.45528436      -6.02866043      -2.77776934
H       -6.22984807      -6.05577154      -3.55464093
N       -4.26941722      -6.77869226      -3.33124814
C       -3.33011994      -5.86960624      -3.23536454
S       -1.72411057      -6.24200731      -3.77251310
N       -3.65215547      -4.64873044      -2.68920409
C       -5.99508150      -6.66436315      -1.50194560
C       -5.14872480      -7.33388563      -0.60003671
C       -5.64724189      -7.86966214       0.59115908
C       -6.99761620      -7.73198034       0.89661076
C       -7.85391846      -7.06636979       0.02347837
C       -7.35456733      -6.53430211      -1.17004257
H       -2.52173424      -0.91965483       0.52421617
H       -3.94306692      -2.33681061      -0.89319878
H       -0.83309034      -2.44800853      -3.89363168
H        0.57792144      -1.02622448      -2.46658340
H       -7.08960721      -2.08951377      -3.92474959
H       -2.00698275      -7.50622854      -4.11585121
H       -4.08834900      -7.44134875      -0.81365131
H       -4.97230198      -8.38416213       1.26975428
H       -8.90787503      -6.95051304       0.26252732
H       -8.03875946      -6.01020893      -1.83404157
C       -7.51100087      -8.27636701       2.12692752
C       -7.94096053      -8.73229084       3.15731781
Br      -8.63616893      -9.46948112       4.82337176
C       -0.88209582       0.88209582       0.88209582
C       -2.11721258       1.31431229       0.40992412
C       -2.92245524       2.11880632       1.21851532
C       -2.50128322       2.50057222       2.50656411
C       -1.25022855       2.05590403       2.96179069
C       -0.44454481       1.24875735       2.15333179
C       -3.37472007       3.38408340       3.38456947
H       -2.91084885       3.50740531       4.37141659
N       -4.72249299       2.75847455       3.61897286
C       -5.51211913       3.65080023       3.07536500
S       -7.22693967       3.39954244       3.11699194
N       -4.94371752       4.75015098       2.47033620
C       -5.33185414       6.12640648       2.80345350
H       -6.13401822       6.15448555       3.55175677
N       -4.14120244       6.80968960       3.42846558
C       -3.23302552       5.86951672       3.33254848
S       -1.63609913       6.16024572       3.94228612
N       -3.57867293       4.68277084       2.72864623
C       -5.79873440       6.82880332       1.53385253
C       -4.89445833       7.49823521       0.68995360
C       -5.32702895       8.09615404      -0.49743803
C       -6.66889550       8.02151590      -0.85742563
C       -7.58185939       7.35742972      -0.04247923
C       -7.14840826       6.76309704       1.14740672
H       -2.46429766       1.03402669      -0.58115145
H       -3.88563436       2.45133256       0.83610939
H       -0.89061197       2.33308153       3.95103706
H        0.52061617       0.91190292       2.52359969
H       -7.15270022       2.21304899       3.73812136
H       -1.88516070       7.42085894       4.32304286
H       -3.83978435       7.55716031       0.94640438
H       -4.60816854       8.60911306      -1.13057177
H       -8.62946012       7.29081367      -0.32441304
H       -7.87630313       6.24144918       1.76525764
C       -7.11450077       8.63004091      -2.08410132
C       -7.48769517       9.13968061      -3.11144222
Br      -8.09111896       9.96372489      -4.77256556
C        0.88209582      -0.88209582       0.88209582
C        2.22000025      -1.07062297       0.55082577
C        3.02468727      -1.87564262       1.35944699
C        2.50047850      -2.50139152       2.50654953
C        1.14730021      -2.30018765       2.82043541
C        0.34175949      -1.49264810       2.01222636
C        3.37484806      -3.38539218       3.38313269
H        2.80915239      -3.71773187       4.26278648
N        4.56872918      -2.63060950       3.90060171
C        5.54981501      -3.31766671       3.37080264
S        7.18567921      -2.85177784       3.70601699
N        5.24037966      -4.37722191       2.54660312
C        5.78634361      -5.72482202       2.75054850
H        6.47765313      -5.76057412       3.60203330
N        4.64182002      -6.64633652       3.09120109
C        3.62165690      -5.83059425       2.98283956
S        2.02138923      -6.41885477       3.29838698
N        3.85900896      -4.53059088       2.60049017
C        6.51809770      -6.15777779       1.48551477
C        5.84566547      -6.80412523       0.43285645
C        6.51705243      -7.15179796      -0.74310544
C        7.86748746      -6.84688679      -0.88138847
C        8.55306177      -6.20021789       0.14353022
C        7.88102990      -5.85655393       1.32132819
H        2.64794474      -0.59929567      -0.33006750
H        4.06920468      -2.01606314       1.08780849
H        0.70684890      -2.76984437       3.69803728
H       -0.70375804      -1.34639989       2.27224459
H        6.85025520      -1.79406453       4.45955084
H        2.40722730      -7.67878389       3.54305131
H        4.78778995      -7.03999719       0.51556191
H        5.97459524      -7.65254926      -1.54043467
H        9.60619755      -5.95386233       0.03580087
H        8.43302749      -5.34377186       2.10621060
C        8.55843815      -7.19724307      -2.09524086
C        9.13710935      -7.49066645      -3.11184224
Br      10.07277175      -7.96510723      -4.75560068
