153
Properties=species:S:1:pos:R:3 pbc="F F F"
C        0.00000000       0.00000000       0.00000000
C        4.23806146      -0.34461907      -0.07418496
O        2.82586624      -0.18962354      -0.05701670
C        2.28706834       0.76166099      -0.88504359
C        3.03544126       1.60512375      -1.71036649
C        2.40078318       2.55426382      -2.51897087
C        1.00454750       2.68027101      -2.53108093
C        0.25404717       1.83694840      -1.70080135
C        0.88903462       0.88903462      -0.88903462
C        0.30747146       3.73610119      -3.37666577
C        0.25629913       5.07862025      -2.63634978
S        0.09830611       6.33812167      -3.92439834
C        0.40359025       5.15290890      -5.27014095
N       -0.87964072       4.78177003      -5.81766098
C       -0.86730975       4.17129532      -7.00368812
O        0.09547559       3.65651694      -7.56676498
C       -2.20907150       4.07611183      -7.66716415
C       -3.30198223       4.85427567      -7.25288199
C       -4.54011077       4.73771115      -7.88781014
C       -4.69605952       3.84073562      -8.94321292
C       -3.61057477       3.06902010      -9.36050742
Br      -3.83245439       1.85043849     -10.79125647
C       -2.37073174       3.18357306      -8.73393691
N        0.98886354       3.96795318      -4.65639726
H        0.76409529       3.21886352      -5.31295319
H        4.49404911      -1.14889201       0.62231676
H        4.73929657       0.56524550       0.27223587
H        4.59284434      -0.64068225      -1.06695790
H        4.11773109       1.55872979      -1.75656553
H        3.00180617       3.20351091      -3.15592248
H       -0.83032330       1.92243029      -1.69267696
H       -0.71522062       3.38379886      -3.57369619
H        1.16826790       5.28273158      -2.06556806
H       -0.59707356       5.12501741      -1.95221951
H        1.09273877       5.60522955      -5.99063055
H       -3.18235833       5.55759868      -6.43116630
H       -5.37364716       5.34763612      -7.55290880
H       -5.66146915       3.75128321      -9.43103590
H       -1.52425060       2.58286104      -9.05531520
C       -4.14295987       0.76069798      -0.58536545
O       -2.76621305       0.46666995      -0.39371630
C       -2.25703205      -0.62135944      -1.05538144
C       -3.00833354      -1.47239173      -1.87020624
C       -2.40611798      -2.56580432      -2.50209556
C       -1.03892332      -2.83286124      -2.34411488
C       -0.28603575      -1.98162441      -1.52413676
C       -0.88903462      -0.88903462      -0.88903462
C       -0.38328353      -4.04220886      -2.99474602
C       -0.55870010      -5.29108377      -2.12148530
S       -0.41414314      -6.69708553      -3.24959745
C       -0.44642592      -5.64618909      -4.73402507
N        0.91916448      -5.47068771      -5.16826705
C        1.09560236      -4.99954068      -6.40373536
O        0.25878431      -4.45676913      -7.12077269
C        2.49969872      -5.11579018      -6.91811301
C        3.45052781      -5.94882211      -6.30688112
C        4.75170598      -6.03024667      -6.80686984
C        5.11354145      -5.27820001      -7.92323046
C        4.16963128      -4.45263200      -8.53595203
Br       4.67079230      -3.43161035     -10.04842252
C        2.86782967      -4.36998678      -8.04462112
N       -0.95357555      -4.34660918      -4.31302925
H       -0.58068176      -3.70279256      -5.01243769
H       -4.37584522       1.66001141      -0.00700653
H       -4.77589048      -0.04901667      -0.20739906
H       -4.35996790       0.97743030      -1.63658238
H       -4.06826748      -1.32233175      -2.04242718
H       -3.00893913      -3.21854164      -3.13375879
H        0.77540238      -2.17481971      -1.38536661
H        0.68721810      -3.81952623      -3.10996631
H       -1.54084754      -5.33639027      -1.63932973
H        0.21046758      -5.34617697      -1.34445396
H       -1.10573991      -6.10476566      -5.47809330
H        3.17002592      -6.53943073      -5.43700184
H        5.47311485      -6.67969647      -6.32031614
H        6.12721818      -5.34229317      -8.30577497
H        2.13122077      -3.72681267      -8.51833374
C       -2.35919345      -1.56497143       3.17340532
O       -1.59912309      -1.01321487       2.10735117
C       -1.66696930       0.34405866       1.92274496
C       -2.45745886       1.20612482       2.68734782
C       -2.47075425       2.58001482       2.42324879
C       -1.69027371       3.12932014       1.39630559
C       -0.90020623       2.26452149       0.62706921
C       -0.88903462       0.88903462       0.88903462
C       -1.72845757       4.61635820       1.07542264
C       -2.89648306       4.93969112       0.13509499
S       -3.26728229       6.68906702       0.40447680
C       -2.16815956       6.80958120       1.84889933
N       -0.92694008       7.39375278       1.39909742
C       -0.10764743       7.85425734       2.34576891
O       -0.15230979       7.61634811       3.55009960
C        1.01208869       8.71143229       1.83486086
C        0.99949218       9.26161345       0.54305415
C        2.06069115      10.05089796       0.09520371
C        3.14479195      10.29656511       0.93611586
C        3.15840786       9.75498551       2.22237509
Br       4.63640573      10.08987566       3.35577064
C        2.10034429       8.96982752       2.67729500
N       -1.89201663       5.44432337       2.27687398
H       -1.00250123       5.52094258       2.77246820
H       -2.17687862      -2.64385568       3.18981740
H       -3.43176631      -1.41294750       3.01348739
H       -2.03988123      -1.16029051       4.13952926
H       -3.08049278       0.85166120       3.50087243
H       -3.09416200       3.23649527       3.03058229
H       -0.29105981       2.67099065      -0.17726652
H       -0.77834588       4.87670899       0.58721956
H       -3.79636630       4.35836577       0.36183546
H       -2.62677386       4.76475879      -0.91136930
H       -2.67854297       7.37411308       2.63594283
H        0.15302258       9.07401030      -0.11458107
H        2.03312276      10.46723906      -0.90721854
H        3.96882002      10.90773177       0.58193821
H        2.10885313       8.54529801       3.67748076
C        3.20747594       1.55752767       2.31767907
O        2.15672371       1.00242794       1.53896362
C        1.94900767      -0.34979654       1.63496871
C        2.72170444      -1.21363107       2.41559600
C        2.44191403      -2.58409281       2.44801103
C        1.38016684      -3.12579414       1.70993846
C        0.60737353      -2.26021838       0.92420502
C        0.88903462      -0.88903462       0.88903462
C        1.09286492      -4.62016900       1.70720450
C        1.96337019      -5.33913316       0.66876582
S        2.07497900      -7.05403878       1.23180834
C        1.30017783      -6.68969639       2.83676587
N       -0.08961494      -7.06849852       2.74090671
C       -0.75844822      -7.17604718       3.89007472
O       -0.42121591      -6.74869407       4.99127935
C       -2.09129016      -7.85364580       3.77184883
C       -2.44569475      -8.60863081       2.64223936
C       -3.69723456      -9.22232507       2.56032002
C       -4.60605919      -9.08570927       3.60823894
C       -4.25528607      -8.33974442       4.73449439
Br      -5.49706085      -8.15570674       6.15059469
C       -3.00598915      -7.72814212       4.82462526
N        1.35999393      -5.24400318       3.00921687
H        0.59498677      -5.04520587       3.65571936
H        3.22164180       2.63690267       2.13810121
H        4.17976211       1.15813949       2.01068358
H        3.03349678       1.40193677       3.38755997
H        3.55345126      -0.86314864       3.01642651
H        3.05623570      -3.24210003       3.06290383
H       -0.21805076      -2.66208010       0.34075461
H        0.03100617      -4.75518735       1.45608091
H        2.97730596      -4.92979445       0.60946714
H        1.51399951      -5.29465400      -0.32849016
H        1.85938426      -7.20445036       3.62476425
H       -1.73702896      -8.71953746       1.82389815
H       -3.95329675      -9.80173111       1.67846340
H       -5.57894126      -9.56170122       3.53809000
H       -2.73064326      -7.14524941       5.69931948
