194
Properties=species:S:1:pos:R:3 pbc="F F F"
F       -0.16179172       8.17698115      -6.62870373
C        0.81647984       7.29314990      -6.39451064
C        1.62870100       7.44978122      -5.28133396
C        2.65427391       6.53237798      -5.04003252
C        2.86925350       5.44039007      -5.90655024
C        2.02231806       5.30345280      -7.02209735
C        1.00454824       6.22988639      -7.26717592
C        3.99952782       4.42848670      -5.68406975
H        3.75154757       3.46286900      -6.13998853
N        4.27644710       4.20865553      -4.25998347
C        3.43307226       3.41190553      -3.42514388
C        3.70614574       3.23744126      -2.06011019
C        2.89283317       2.43612776      -1.24704538
C        1.79048542       1.79048542      -1.79048542
C        1.49206808       1.94551887      -3.13777005
C        2.30630054       2.75163547      -3.94500137
C        5.41219080       4.90431904      -3.84097435
O        5.89520952       5.07850940      -2.74065389
C        6.07502348       5.44629947      -5.10791336
O        7.09113716       6.10398267      -5.17912887
C        5.30276056       4.92825111      -6.24625135
C        5.86013211       4.81170514      -7.46223333
O        7.11359217       5.28561541      -7.78674486
C        5.21995941       4.07500929      -8.55503240
C        5.40779072       2.68845138      -8.65613923
C        4.79977599       1.96553043      -9.68460288
C        4.00418653       2.62989849     -10.61545905
Br       3.17368634       1.65207849     -12.00334656
C        3.82065438       4.00992896     -10.53368882
C        4.43549463       4.73366184      -9.50747971
H        1.46030392       8.28352029      -4.60596569
H        3.26760600       6.68483894      -4.15417199
H        2.14453392       4.47291588      -7.71470047
H        0.35607166       6.12921060      -8.13225962
H        4.55576629       3.71059657      -1.57685332
H        3.13848885       2.32679571      -0.19354583
H        0.63071369       1.44580524      -3.57449146
H        2.01629706       2.83381173      -4.98788208
H        7.48563213       5.77819166      -7.02308518
H        6.04647857       2.16659708      -7.94605981
H        4.96273736       0.89306221      -9.75634816
H        3.21096805       4.53151579     -11.26707960
H        4.30166513       5.81232366      -9.45822940
F       -7.19871347       0.23291800      -7.67809768
C       -6.83574322      -0.78322347      -6.88517369
C       -5.68457642      -1.50035940      -7.17488036
C       -5.30891345      -2.56532027      -6.35245069
C       -6.07767733      -2.91558833      -5.22292814
C       -7.23496914      -2.16275156      -4.95014750
C       -7.61451777      -1.10521973      -5.78187305
C       -5.70684426      -4.09247253      -4.31276748
H       -6.10739035      -3.94382107      -3.30319368
N       -4.25515950      -4.27982823      -4.21009837
C       -3.42365135      -3.43392625      -3.41254406
C       -2.03427127      -3.61866764      -3.35075829
C       -1.22207338      -2.80456371      -2.54936923
C       -1.79048542      -1.79048542      -1.79048542
C       -3.16250700      -1.58055084      -1.83229915
C       -3.96918548      -2.39482415      -2.63892774
C       -3.81193479      -5.33276753      -5.01278188
O       -2.69703496      -5.72206120      -5.29527665
C       -5.06716777      -6.04745820      -5.51461034
O       -5.11708445      -7.01938339      -6.23778086
C       -6.21452901      -5.39628113      -4.86645288
C       -7.37852352      -6.04675611      -4.70879096
O       -7.65119010      -7.28558447      -5.24917787
C       -8.45584108      -5.53847370      -3.85568632
C       -8.44346642      -5.82621686      -2.48269806
C       -9.45559173      -5.34435100      -1.64996656
C      -10.48360949      -4.57520119      -2.19073339
Br     -11.84996001      -3.91513708      -1.06401431
C      -10.51446371      -4.29357535      -3.55623309
C       -9.50418027      -4.78234161      -4.39011430
H       -5.08419857      -1.22769291      -8.03789841
H       -4.39706066      -3.10127000      -6.60828628
H       -7.85584373      -2.39049425      -4.08581229
H       -8.51181262      -0.52930196      -5.57642730
H       -1.53031331      -4.39724585      -3.91565702
H       -0.14926127      -2.98016827      -2.52940086
H       -3.61902761      -0.78872075      -1.24326202
H       -5.03245719      -2.17615254      -2.62938114
H       -6.90182040      -7.56732707      -5.81776150
H       -7.65603602      -6.44559564      -2.05750381
H       -9.43840121      -5.58403776      -0.58970876
H      -11.32311577      -3.70476049      -3.98168718
H       -9.54223873      -4.57285364      -5.45712582
F       -3.77129024       9.76640153       1.10620139
C       -3.77168144       8.75208407       1.98037487
C       -4.73073710       7.75604767       1.87303142
C       -4.73653297       6.70119792       2.78895352
C       -3.77272878       6.62731640       3.81614863
C       -2.80698790       7.64808401       3.89279629
C       -2.81122095       8.70848659       2.98190301
C       -3.76425280       5.49637421       4.85145726
H       -2.75557463       5.34543043       5.25340004
N       -4.23177571       4.22434594       4.28896445
C       -3.42003808       3.41474560       3.43533798
C       -3.89944707       2.21432034       2.88992978
C       -3.09491514       1.40826047       2.07283070
C       -1.79048542       1.79048542       1.79048542
C       -1.28761055       2.97465981       2.31308663
C       -2.09814360       3.77893985       3.12585394
C       -5.55204468       3.95254568       4.65289384
O       -6.32589262       3.08424028       4.30423991
C       -5.92763701       4.99033274       5.71126656
O       -6.98870833       5.09741415       6.28812622
C       -4.71695567       5.77891333       5.98139402
C       -4.56076097       6.42563302       7.14767659
O       -5.54293625       6.53372148       8.10929471
C       -3.28134951       7.00846610       7.56018549
C       -2.33484737       6.20463486       8.21289910
C       -1.10564124       6.73753018       8.60673787
C       -0.82248154       8.07718783       8.34987471
Br       0.84385984       8.79826568       8.87470555
C       -1.76035866       8.89004512       7.71386838
C       -2.99344706       8.35705631       7.32613281
H       -5.46861302       7.80367750       1.07749937
H       -5.50082638       5.93576991       2.67002064
H       -2.03861902       7.63020466       4.66332659
H       -2.07127569       9.50059924       3.04566695
H       -4.90785943       1.85774293       3.07761382
H       -3.50417285       0.48527783       1.66937972
H       -0.26792147       3.28506643       2.09802249
H       -1.64618106       4.69261436       3.49919545
H       -6.37620391       6.13801578       7.77268929
H       -2.55845924       5.16341997       8.43725625
H       -0.38607786       6.10522301       9.12084686
H       -1.54599671       9.93881414       7.52475259
H       -3.72737652       9.00007874       6.84476293
F        9.56036470      -4.34553895       0.73798951
C        8.45461585      -4.60076012       1.44876442
C        8.10411269      -3.76063924       2.49506425
C        6.95465244      -4.03012562       3.24190635
C        6.13705867      -5.13913431       2.94000082
C        6.51421470      -5.96721408       1.86643943
C        7.67147022      -5.70150666       1.12863367
C        4.88190468      -5.47685113       3.75332845
H        4.16604977      -6.04264625       3.14570908
N        4.20849998      -4.27594027       4.26064586
C        3.41105883      -3.43031354       3.42874929
C        2.79771919      -2.27344635       3.93253165
C        1.99566991      -1.45773646       3.12259995
C        1.79048542      -1.79048542       1.79048542
C        2.38617097      -2.92779768       1.26138835
C        3.19082889      -3.73727750       2.07483099
C        4.48864976      -4.05786002       5.61097442
O        4.23031833      -3.13163926       6.35241522
C        5.21170124      -5.31065716       6.10687791
O        5.62297294      -5.52391461       7.22736116
C        5.22353623      -6.26485650       4.98887029
C        5.34084829      -7.58418267       5.20903962
O        5.60122561      -8.14191113       6.44281570
C        5.10676398      -8.58161537       4.16162175
C        3.80122653      -9.03342700       3.91772779
C        3.55452852      -9.97703853       2.91834224
C        4.61499550     -10.47201582       2.16253275
Br       4.28216899     -11.74302895       0.80391345
C        5.91903837     -10.04090139       2.40433239
C        6.16564401      -9.10116901       3.40982315
H        8.72533904      -2.89983470       2.72461616
H        6.70890347      -3.34601289       4.05170057
H        5.91102540      -6.83017235       1.59095252
H        7.96727319      -6.34483443       0.30543426
H        2.91460324      -1.96226634       4.96634660
H        1.53827676      -0.56934187       3.55121177
H        2.23376212      -3.19802933       0.21921894
H        3.62956647      -4.60901964       1.59940475
H        5.76056537      -7.42820227       7.09814134
H        2.97126651      -8.66824690       4.51962205
H        2.53900618     -10.32554057       2.74760098
H        6.74906972     -10.43618687       1.82430685
H        7.18700209      -8.78063284       3.60458326
C       -0.00445707       0.01189536      -1.78238275
H       -0.66409135       0.67374010      -2.43557963
H        0.65740317      -0.63156657      -2.45157240
C       -0.90989263      -0.90692880      -0.91072765
C        0.90977584       0.90977584      -0.90977584
C       -0.00465871       1.77757030       0.00794375
H       -0.66225468       2.44313916      -0.64384735
H        0.64322798       2.43503045       0.67728295
C       -1.78241447       0.00034974      -0.00472694
H       -2.45427497      -0.65498947       0.64260836
H       -2.43311707       0.67328779      -0.65473579
C       -0.91132561       0.90220522       0.91563759
C       -0.01476271      -0.02253852       1.78660255
H       -0.67934791      -0.69751639       2.42135241
H        0.63392994       0.61504881       2.47327442
C        0.01484550      -1.77751727      -0.01636693
H        0.67870853      -2.42144646      -0.68295456
H       -0.62264859      -2.45592969       0.64226336
C        1.78714474       0.01002794       0.00389507
H        2.44202412       0.67113390       0.66197326
H        2.45385902      -0.65136977      -0.64189061
C        0.91606151      -0.90478549       0.90901405
