161
Properties=species:S:1:pos:R:3 pbc="F F F"
C        0.00000000       0.00000000       0.00000000
C        1.99565210       6.20748408      -5.58834095
C        2.62444309       5.08666827      -5.96766481
C        2.21777068       3.69854893      -5.57680036
N        3.27809847       3.13374315      -4.77403332
C        3.41135692       3.40153227      -3.35219357
H        3.15805563       4.45615842      -3.18923998
C        2.50553681       2.51029214      -2.50684302
C        2.19927602       1.18635440      -2.87870433
C        1.38807423       0.37972823      -2.07475182
C        0.88138973       0.88138973      -0.88138973
C        1.17422835       2.18412347      -0.48723521
C        1.97877894       2.99415782      -1.29611150
C        4.87519543       3.16297421      -3.07515936
C        5.68143026       3.73999423      -2.16833537
O        5.26556408       4.65611129      -1.22424178
C        7.13230820       3.52375843      -2.12319794
C        7.67499854       2.52281418      -1.30925274
C        9.05640750       2.31650183      -1.27510685
C        9.89403236       3.11464687      -2.05291131
Br      11.76344058       2.83368086      -2.00794259
C        9.36667170       4.11939777      -2.86156961
C        7.98577042       4.32526366      -2.89466292
C        5.34881973       2.27026549      -4.16946057
O        6.29312361       1.51451160      -4.17663020
C        4.33884607       2.43574225      -5.30652743
O        4.50832285       2.06648235      -6.44954876
H        2.34701176       7.17881543      -5.92780232
H        1.11838503       6.18809373      -4.94954135
H        3.48715037       5.16760940      -6.62916142
H        2.08437111       3.09646890      -6.48166620
H        1.28329395       3.67784843      -5.00663380
H        2.58234692       0.75666254      -3.80245554
H        1.16395634      -0.63666355      -2.38951905
H        0.78272265       2.57680668       0.44788131
H        2.18131765       4.00819351      -0.96189412
H        4.31217747       4.80425286      -1.27731014
H        7.02507055       1.89384804      -0.70542190
H        9.46442158       1.53062006      -0.64628000
H       10.01678613       4.74239538      -3.46894442
H        7.58073106       5.11276144      -3.52562141
C       -7.16642675      -2.84256676      -3.78248363
C       -6.52617144      -3.89577699      -3.25682775
C       -5.51775538      -3.82444922      -2.15091537
N       -4.24574811      -4.26019398      -2.67993285
C       -3.36338594      -3.37766702      -3.42402980
H       -3.99078252      -2.74704705      -4.06562446
C       -2.50943019      -2.50477556      -2.50846621
C       -2.04713330      -2.95949484      -1.25770661
C       -1.24391511      -2.15130290      -0.44733626
C       -0.88138973      -0.88138973      -0.88138973
C       -1.31913177      -0.41028889      -2.11616637
C       -2.13016579      -1.21572236      -2.92316011
C       -2.53306332      -4.31887358      -4.26139211
C       -1.98481886      -4.13130241      -5.47363859
O       -2.02726872      -2.94383477      -6.17481367
C       -1.33671284      -5.20076315      -6.24178857
C        0.04390921      -5.40813137      -6.14284329
C        0.65500799      -6.43204288      -6.87098130
C       -0.11566138      -7.24540190      -7.70052726
Br       0.71154504      -8.63238398      -8.68422508
C       -1.48983855      -7.04430947      -7.81349106
C       -2.09974586      -6.02024766      -7.08570347
C       -2.59229246      -5.63322605      -3.56302728
O       -1.81223281      -6.55606368      -3.61596892
C       -3.83460581      -5.57428807      -2.67222188
O       -4.35604683      -6.53041007      -2.13789707
H       -7.89655037      -2.98089766      -4.57618148
H       -6.99353514      -1.82973113      -3.43275384
H       -6.75837984      -4.89207982      -3.63346152
H       -5.82583596      -4.49488118      -1.34178908
H       -5.41154932      -2.81445607      -1.74177080
H       -2.30495131      -3.94975759      -0.88675610
H       -0.90607038      -2.52646112       0.51571967
H       -1.03296216       0.58076298      -2.45944885
H       -2.45994180      -0.81393970      -3.87752379
H       -2.47347681      -2.25369321      -5.66657044
H        0.64815027      -4.78003996      -5.49245081
H        1.72575942      -6.58846706      -6.77861399
H       -2.09279640      -7.67672527      -8.45860426
H       -3.17202732      -5.86672226      -7.18036432
C       -7.17307936       2.86739664       3.75100113
C       -6.52135252       3.91968364       3.23774001
C       -5.50541033       3.84901473       2.13869491
N       -4.23417698       4.27157597       2.68012199
C       -3.36372621       3.37722540       3.42413114
H       -4.00037195       2.74656919       4.05651289
C       -2.50945697       2.50478282       2.50843217
C       -2.03472006       2.96518504       1.26442965
C       -1.23148566       2.15704535       0.45402326
C       -0.88138973       0.88138973       0.88138973
C       -1.33157515       0.40454320       2.10946869
C       -2.14262029       1.21000634       2.91642163
C       -2.53273746       4.30621436       4.27437718
C       -1.99476276       4.10582603       5.48917107
O       -2.05097724       2.91363525       6.18130467
C       -1.34454174       5.16489982       6.26982301
C        0.03823883       5.36286630       6.18243799
C        0.65141646       6.37695513       6.92247751
C       -0.11937372       7.18988388       7.75233294
Br       0.71066799       8.56358365       8.75214836
C       -1.49576679       6.99804374       7.85382855
C       -2.10775666       5.98379334       7.11414699
C       -2.57729475       5.62600737       3.58524367
O       -1.79095571       6.54269882       3.65061089
C       -3.81344725       5.58264545       2.68502306
O       -4.32399720       6.54641924       2.15393752
H       -7.90797058       3.00529689       4.54036204
H       -7.00499881       1.85589127       3.39513003
H       -6.74906391       4.91489589       3.61996139
H       -5.80267572       4.52754898       1.33228151
H       -5.40355603       2.84127192       1.72294824
H       -2.28260920       3.95997965       0.89887614
H       -0.88387944       2.53671062      -0.50377823
H       -1.05513904      -0.59104697       2.44755596
H       -2.48228810       0.80372216       3.86539502
H       -2.49845684       2.23049260       5.66479103
H        0.64264448       4.73511166       5.53187332
H        1.72392440       6.52620158       6.83904445
H       -2.09881919       7.63015153       8.49915521
H       -3.18179028       5.83744005       7.19988357
C        7.13259791      -2.73751423       3.92136499
C        6.54351968      -3.79271325       3.34254324
C        5.56846344      -3.71728211       2.20737442
N        4.29526617      -4.20954053       2.68106824
C        3.36194806      -3.37961377       3.42352093
H        3.94821534      -2.75072875       4.10450994
C        2.50930986      -2.50474910       2.50861300
C        2.10136892      -2.93303937       1.22992646
C        1.29821393      -2.12462116       0.41971918
C        0.88138973      -0.88138973       0.88138973
C        1.26477162      -0.43698684       2.14382858
C        2.07575108      -1.24229533       2.95100186
C        2.53667502      -4.37295707       4.20369691
C        1.94494551      -4.24195479       5.40285956
O        1.92698428      -3.07703776       6.14189512
C        1.30802020      -5.35547574       6.11576863
C       -0.06139583      -5.60268324       5.96577805
C       -0.66157109      -6.66824785       6.64133942
C        0.10863450      -7.48346767       7.46948837
Br      -0.70369315      -8.92676932       8.38198785
C        1.47137600      -7.24318484       7.63307824
C        2.07034516      -6.17751873       6.95783311
C        2.66022757      -5.66153595       3.46678227
O        1.90914531      -6.60958608       3.46553402
C        3.92728045      -5.53493208       2.61890323
O        4.49585217      -6.45646956       2.07203224
H        7.84159129      -2.87850128       4.73353693
H        6.93808198      -1.71981143       3.59812670
H        6.79591478      -4.79291195       3.69509446
H        5.92326027      -4.35121589       1.38803006
H        5.44251859      -2.69840841       1.82684919
H        2.40257121      -3.90222483       0.83666897
H        1.00301329      -2.47883686      -0.56503832
H        0.93608769       0.53299358       2.50855392
H        2.36230243      -0.86145385       3.92764900
H        2.36634182      -2.35718143       5.67021722
H       -0.66496248      -4.97312347       5.31617951
H       -1.72328435      -6.85506869       6.50953730
H        2.07396596      -7.87693408       8.27722588
H        3.13360879      -5.99361999       7.09188512
