133
Properties=species:S:1:pos:R:3 pbc="F F F"
C        0.00000000       0.00000000       0.00000000
C        0.88167223       0.88167223      -0.88167223
C        1.95483103       1.56882159      -0.31708450
C        2.76523770       2.36927707      -1.12543255
C        2.50210996       2.48460278      -2.49691335
C        1.42408457       1.78631446      -3.05325174
C        0.61188903       0.98634735      -2.24532852
C        3.36521581       3.31689348      -3.33832065
C        3.12955193       4.62180508      -3.54222257
C        2.03708478       5.52168724      -3.02893133
H        1.96762668       5.45278394      -1.93701038
N        2.50357360       6.85917765      -3.31535066
C        3.61328814       6.91103326      -4.11609516
O        4.13104360       7.89202262      -4.59941034
C        4.07862585       5.46561710      -4.29909823
O        5.04734642       5.07750783      -4.91735795
C        0.67899287       5.29834579      -3.66816567
C       -0.41852964       4.94529588      -2.86485025
C       -1.68445380       4.75635500      -3.42617560
C       -1.86559434       4.91891970      -4.79698394
Br      -3.57956205       4.67399298      -5.55416480
C       -0.79226199       5.26466509      -5.61280530
C        0.47372514       5.45292712      -5.05191399
O        4.44854004       2.63632874      -3.85297443
H        2.17746471       1.47703880       0.74285871
H        3.61628249       2.88353622      -0.68389150
H        1.21767785       1.85191512      -4.11946245
H       -0.21729946       0.44301552      -2.69092069
H        1.96666220       7.69624750      -3.12841825
H       -0.29959106       4.81097116      -1.79082493
H       -2.52052322       4.48560149      -2.78608049
H       -0.92948459       5.39527347      -6.68362534
H        1.29274561       5.73116496      -5.71261020
H        4.98244032       3.24539731      -4.40785795
C       -0.88167223      -0.88167223      -0.88167223
C       -1.64219902      -0.30255529      -1.89598280
C       -2.44276623      -1.11044607      -2.70673502
C       -2.48486914      -2.49611210      -2.50264484
C       -1.71336624      -3.06669576      -1.48358877
C       -0.91318460      -2.25933087      -0.67104943
C       -3.31818496      -3.33613494      -3.36611004
C       -4.60044265      -3.61058047      -3.08255647
C       -5.47055309      -3.18849770      -1.92865257
H       -5.44696261      -2.09870839      -1.81175000
N       -6.81422994      -3.51568330      -2.34818867
C       -6.88195744      -4.26800269      -3.49045643
O       -7.86351904      -4.77287271      -3.98608481
C       -5.45298940      -4.36297015      -4.02738164
O       -5.08320660      -4.91902451      -5.03998109
C       -5.15635606      -3.87624581      -0.61290246
C       -4.78873400      -3.10685165       0.50396916
C       -4.51659405      -3.71436194       1.73287919
C       -4.60967088      -5.09791421       1.85727578
Br      -4.25220098      -5.91813669       3.52174194
C       -4.96832732      -5.88052185       0.76364078
C       -5.23977350      -5.27341043      -0.46538232
O       -2.66645580      -3.77015418      -4.50123324
H       -1.60790563       0.76932829      -2.07306747
H       -3.01500444      -0.65594782      -3.51275797
H       -1.72200623      -4.14290051      -1.32414868
H       -0.31276771      -2.71555493       0.11168589
H       -7.63295935      -3.39175268      -1.76661591
H       -4.70780121      -2.02353755       0.42913373
H       -4.23599091      -3.10008147       2.58491362
H       -5.04484550      -6.96127525       0.85670652
H       -5.52614185      -5.90935226      -1.30102665
H       -3.27443960      -4.32848064      -5.03277534
C       -0.88167223       0.88167223       0.88167223
C       -2.15673257       1.23803074       0.44597381
C       -2.96539648       2.03842942       1.25612143
C       -2.49931635       2.48417069       2.50013904
C       -1.21865166       2.11619763       2.92880149
C       -0.40829624       1.31666786       2.11860081
C       -3.35967642       3.31305345       3.34770007
C       -3.37290629       4.65225019       3.26842310
C       -2.60046870       5.59872997       2.38850468
H       -2.70800607       5.31414964       1.33526530
N       -3.28181827       6.86520718       2.53107647
C       -4.22186064       6.89201535       3.52654056
O       -4.84327846       7.84817220       3.93102590
C       -4.33302743       5.45951622       4.05079753
O       -5.07619505       5.04894701       4.91707014
C       -1.13619372       5.75362481       2.75568580
C       -0.14479838       5.43439393       1.81242418
C        1.21007098       5.59000791       2.11813987
C        1.58719342       6.06687160       3.37063113
Br       3.41880398       6.28744072       3.77995899
C        0.62277491       6.38589743       4.32208588
C       -0.73193677       6.22971100       4.01691849
O       -4.16934016       2.57944238       4.18906067
H       -2.53492635       0.88765361      -0.51093515
H       -3.96901478       2.29283154       0.92186391
H       -0.84946291       2.43990038       3.89969213
H        0.58112744       1.03136914       2.46639505
H       -2.97416072       7.72398486       2.09318237
H       -0.41669300       5.05805661       0.82745542
H        1.96080709       5.33914898       1.37281687
H        0.91248946       6.76114630       5.30075738
H       -1.46428527       6.49506489       4.77717060
H       -4.71546486       3.19008589       4.73014484
C        0.88167223      -0.88167223       0.88167223
C        0.62357613      -0.96858108       2.24857991
C        1.42586577      -1.78090149       3.05318006
C        2.48680217      -2.50440475       2.49241916
C        2.73355502      -2.41241615       1.11767961
C        1.93247090      -1.59905516       0.31203884
C        3.31477513      -3.36300558       3.34264923
C        4.41458733      -2.91334513       3.96564712
C        5.05621036      -1.55141565       3.98007734
H        4.32005908      -0.78576454       4.25159737
N        5.99812490      -1.60516862       5.07480840
C        6.18615961      -2.85696968       5.59728726
O        6.99677704      -3.19696252       6.42873700
C        5.16661449      -3.76665258       4.91007411
O        4.98307129      -4.94881325       5.11032766
C        5.77364981      -1.17491544       2.69693907
C        5.37484804      -0.02965637       1.98711208
C        6.03417137       0.35120610       0.81511153
C        7.09951280      -0.40959228       0.34120422
Br       7.99776294       0.11160788      -1.23755933
C        7.50955988      -1.55001570       1.02563282
C        6.85003663      -1.93144087       2.19708875
O        2.82638002      -4.64683570       3.46462749
H       -0.20459226      -0.42288497       2.69335210
H        1.20435142      -1.86425512       4.11510368
H        3.54258405      -2.98168753       0.66478385
H        2.12955694      -1.54240366      -0.75532385
H        6.62483815      -0.84877541       5.31771439
H        4.54307749       0.57910588       2.33823342
H        5.71077902       1.24219783       0.28257758
H        8.34280049      -2.14590531       0.66070842
H        7.19764375      -2.82283984       2.71603717
H        3.42513846      -5.16997859       4.04057853
