141
Properties=species:S:1:pos:R:3 pbc="F F F"
C        0.00000000       0.00000000       0.00000000
C        0.88167223       0.88167223      -0.88167223
C        1.95483103       1.56882159      -0.31708450
C        2.76523770       2.36927707      -1.12543255
C        2.50210996       2.48460278      -2.49691335
C        1.42408457       1.78631446      -3.05325174
C        0.61188903       0.98634735      -2.24532852
C        3.36521581       3.31689348      -3.33832065
C        3.12955193       4.62180508      -3.54222257
C        2.03708478       5.52168724      -3.02893133
H        1.96762668       5.45278394      -1.93701038
N        2.50357360       6.85917765      -3.31535066
C        3.61328814       6.91103326      -4.11609516
O        4.13104360       7.89202262      -4.59941034
C        4.07862585       5.46561710      -4.29909823
O        5.04734642       5.07750783      -4.91735795
C        0.67899287       5.29834579      -3.66816567
C       -0.41852964       4.94529588      -2.86485025
C       -1.68445380       4.75635500      -3.42617560
C       -1.86559434       4.91891970      -4.79698394
C       -0.79226199       5.26466509      -5.61280530
C        0.47372514       5.45292712      -5.05191399
O        4.44854004       2.63632874      -3.85297443
H        2.17746471       1.47703880       0.74285871
H        3.61628249       2.88353622      -0.68389150
H        1.21767785       1.85191512      -4.11946245
H       -0.21729946       0.44301552      -2.69092069
H        1.96666220       7.69624750      -3.12841825
H       -0.29959106       4.81097116      -1.79082493
H       -2.52052322       4.48560149      -2.78608049
H       -0.92948459       5.39527347      -6.68362534
H        1.29274561       5.73116496      -5.71261020
H        4.98244032       3.24539731      -4.40785795
C       -3.17167611       4.73228006      -5.37397271
C       -4.26551960       4.57596935      -5.85720080
Br      -6.03417200       4.32322816      -6.63853976
C       -0.88167223      -0.88167223      -0.88167223
C       -2.23829603      -1.01244350      -0.58999758
C       -3.04560763      -1.81319913      -1.40114056
C       -2.49707271      -2.48455663      -2.50199675
C       -1.13417155      -2.34207532      -2.78740390
C       -0.32532800      -1.54237474      -1.97586217
C       -3.35456342      -3.31218961      -3.35367691
C       -3.56675099      -4.61470171      -3.11212688
C       -3.05069432      -5.51538473      -2.02162430
H       -3.24627579      -5.07362392      -1.03752129
N       -3.88139938      -6.69525135      -2.10145119
C       -4.68543837      -6.74615288      -3.20882531
O       -5.38101366      -7.66567224      -3.57579066
C       -4.52722849      -5.39955114      -3.91656154
O       -5.09201302      -5.02692816      -4.92327102
C       -1.58899698      -5.90046788      -2.15603946
C       -0.68671049      -5.57607975      -1.12882625
C        0.65982841      -5.93965162      -1.21825360
C        1.11763521      -6.63177873      -2.33616579
C        0.24288723      -6.96045911      -3.36763651
C       -1.10334807      -6.59642201      -3.27879617
O       -3.94205471      -2.61053131      -4.38525719
H       -2.67850246      -0.48622110       0.25307875
H       -4.10866169      -1.89173128      -1.18331726
H       -0.69730905      -2.84296225      -3.64878412
H        0.72982703      -1.43365557      -2.21280821
H       -3.75480239      -7.51484821      -1.52167735
H       -1.02230734      -5.03353194      -0.24636575
H        1.34053976      -5.68066047      -0.41103805
H        0.59536227      -7.50325022      -4.24152627
H       -1.76620343      -6.87403456      -4.09628277
H       -4.49792694      -3.21931355      -4.91845508
C        2.50330957      -7.01352146      -2.42436477
C        3.66381185      -7.33323099      -2.49823142
Br       5.54024588      -7.85017426      -2.61766754
C       -0.88167223       0.88167223       0.88167223
C       -0.42362945       1.28115835       2.13594932
C       -1.22753916       2.09359702       2.93881114
C       -2.48938670       2.50492415       2.48931523
C       -2.93675564       2.10084505       1.22605009
C       -2.13397468       1.28699423       0.42259600
C       -3.31979155       3.36692064       3.33371776
C       -4.18918432       2.87505771       4.22933755
C       -4.53462359       1.45643304       4.59664673
H       -3.62589088       0.89293547       4.83859465
N       -5.27396946       1.57105634       5.83307611
C       -5.61902141       2.85324706       6.16814809
O       -6.33224959       3.21348887       7.07673810
C       -4.92960089       3.76330804       5.15043225
O       -4.95518168       4.97538663       5.11164389
C       -5.36464101       0.71799181       3.56287151
C       -4.86828716      -0.46383092       2.98716025
C       -5.62291986      -1.17468688       2.04984382
C       -6.88209878      -0.71073128       1.67894180
C       -7.39254969       0.45949102       2.23316768
C       -6.63792634       1.17081480       3.16982512
O       -3.08418646       4.71199759       3.14165916
H        0.55872835       0.97990088       2.49047227
H       -0.85456937       2.42271901       3.90642184
H       -3.90667823       2.42641629       0.85596091
H       -2.48958121       0.98661674      -0.55956121
H       -5.68808666       0.78533809       6.31790319
H       -3.88535359      -0.84409642       3.26094785
H       -5.22082393      -2.08802002       1.61835485
H       -8.37661687       0.82432553       1.94847182
H       -7.06573779       2.07782369       3.59295928
H       -3.67162389       5.23317309       3.73089860
C       -7.66291693      -1.44769469       0.71935442
C       -8.31685213      -2.06490155      -0.08430002
Br      -9.37421003      -3.06287284      -1.38374127
C        0.88167223      -0.88167223       0.88167223
C        0.55160137      -1.06593281       2.22320293
C        1.35436727      -1.87835845       3.02722160
C        2.48754860      -2.50468417       2.49139331
C        2.80645534      -2.31553499       1.14166045
C        2.00488716      -1.50194037       0.33673738
C        3.31610667      -3.36452826       3.33979501
C        4.34920612      -2.89134124       4.05303223
C        4.90517453      -1.49834496       4.18418386
H        4.10962752      -0.79390903       4.45388445
N        5.78448825      -1.56445593       5.32915774
C        6.01791797      -2.83283907       5.78965951
O        6.79880235      -3.17573272       6.64794149
C        5.09637651      -3.75596484       4.99099982
O        4.97371863      -4.95665019       5.11184337
C        5.67063873      -1.00432117       2.97054443
C        5.24434706       0.15720368       2.30447311
C        5.94527924       0.64551197       1.19830953
C        7.08014688      -0.02299471       0.74716771
C        7.51880343      -1.17751751       1.38888745
C        6.81773729      -1.66636494       2.49446402
O        2.90029834      -4.67920996       3.35833492
H       -0.33220743      -0.59645432       2.64739791
H        1.07797062      -2.03848843       4.06725117
H        3.67308556      -2.80910821       0.70686166
H        2.25887083      -1.36948627      -0.71172036
H        6.34926137      -0.78959794       5.65246864
H        4.35847768       0.69500262       2.63872997
H        5.59941975       1.54721278       0.69895180
H        8.40614616      -1.70156745       1.04170062
H        7.18852866      -2.56626334       2.98172876
H        3.49577475      -5.20123272       3.93868811
C        7.80694134       0.48488238      -0.38748231
C        8.41563170       0.91022945      -1.33775170
Br       9.39983253       1.59797968      -2.87425694
