121
Properties=species:S:1:pos:R:3 pbc="F F F"
C        0.00000000       0.00000000       0.00000000
C        0.87182478       0.87182478      -0.87182478
C        2.10453125       0.49064529      -1.33786565
C        2.69978026       1.52347711      -2.12597494
C        1.88500178       2.63418800      -2.23104386
C        2.10199685       3.86939255      -2.93931825
N        3.25691608       4.16446807      -3.45479376
N        3.27579019       5.33597320      -4.16299949
C        2.54537796       5.61801175      -5.30967488
S        1.28742130       4.81721256      -6.04013882
N        3.12322864       6.76861786      -5.84226254
H        2.88439606       7.20934774      -6.72253658
N        4.24735889       7.10978622      -5.14292729
C        4.30742253       6.23826535      -4.16825441
C        5.41753496       6.21592100      -3.20362663
C        6.70938201       6.27347691      -3.75465519
C        7.83442474       6.31112007      -2.93047223
C        7.67939488       6.29184012      -1.54798113
C        6.39943724       6.25928873      -0.99054136
C        5.26344689       6.24040165      -1.81280189
S        0.41625383       2.42298429      -1.37465287
H        2.56385111      -0.46822948      -1.13307354
H        3.67090790       1.44999344      -2.60282979
H        1.24841405       4.57036579      -3.00414704
H        6.84190573       6.30352322      -4.83531036
H        8.82846283       6.36581581      -3.36907789
H        8.55398169       6.32604001      -0.90180897
H        6.29827198       6.27833425       0.09275285
C        3.98884609       6.35818538      -1.15316578
C        2.92136792       6.45682925      -0.60072054
Br       1.19534600       6.61632805       0.29253669
C       -0.87182478      -0.87182478      -0.87182478
C       -1.26919845      -2.13838720      -0.52545655
C       -2.07595305      -2.72380508      -1.54947419
C       -2.26293787      -1.86885770      -2.61843807
C       -3.01452105      -2.06482215      -3.83136446
N       -3.49382998      -3.22775290      -4.15459503
N       -4.25082108      -3.22860156      -5.29534023
C       -5.43804847      -2.53755213      -5.49746399
S       -6.18475938      -1.34689006      -4.61312324
N       -5.99557965      -3.08961251      -6.64891688
H       -6.90332711      -2.87108853      -7.04186474
N       -5.26555683      -4.16716124      -7.06735433
C       -4.25231837      -4.22106219      -6.24056173
C       -3.24228702      -5.28822433      -6.30657124
C       -3.74107871      -6.59925884      -6.39717655
C       -2.87322093      -7.68492521      -6.51787090
C       -1.49884273      -7.47096792      -6.54940549
C       -0.99424222      -6.17048288      -6.48454224
C       -1.86145058      -5.07302503      -6.38217481
S       -1.46002547      -0.37437887      -2.37948665
H       -1.00404800      -2.62787416       0.40322699
H       -2.50835849      -3.71693167      -1.49844097
H       -3.14516722      -1.18643826      -4.49132140
H       -4.81557054      -6.77720103      -6.38796774
H       -3.27205724      -8.69392850      -6.59737080
H       -0.81894278      -8.31450158      -6.64838631
H        0.08205740      -6.02168575      -6.54422504
C       -1.26114137      -3.76719744      -6.47185843
C       -0.75838240      -2.67356683      -6.54696847
Br       0.05453632      -0.90525864      -6.66841505
C       -0.87182478       0.87182478       0.87182478
C       -0.50772858       1.30308747       2.12222615
C       -1.53624831       2.10063335       2.71235066
C       -2.62646767       2.24719290       1.87657307
C       -3.85073266       2.97740552       2.08256947
N       -4.15983100       3.47445915       3.24188776
N       -5.31611454       4.20743753       3.25121081
C       -5.55769053       5.37528271       2.54009135
S       -4.71431441       6.11477617       1.31568209
N       -6.70899522       5.92036014       3.10475368
H       -7.12556636       6.81490880       2.87580522
N       -7.08937720       5.20482613       4.20586907
C       -6.24033444       4.21035302       4.26325482
C       -6.26271949       3.22203466       5.35232844
C       -6.33663184       3.74653673       6.65434553
C       -6.41630931       2.89958583       7.76012190
C       -6.42311834       1.52061957       7.57547823
C       -6.37459433       0.99000029       6.28467272
C       -6.31346687       1.83567121       5.16751234
S       -2.40163369       1.41789422       0.39436308
H        0.43633870       1.06772974       2.59730413
H       -1.47378023       2.55497659       3.69497431
H       -4.53141708       3.07565049       1.21585931
H       -6.34652506       4.82452102       6.80969322
H       -6.48327484       3.31799996       8.76208173
H       -6.49010911       0.85685806       8.43486351
H       -6.41450906      -0.09022122       6.15956554
C       -6.41750220       1.20606164       3.87663340
C       -6.50463179       0.67876363       2.79552229
Br      -6.64551296      -0.17383266       1.04745705
C        0.87182478      -0.87182478       0.87182478
C        2.21634247      -0.66603999       1.05065974
C        2.77837484      -1.65373380       1.91712367
C        1.83119350      -2.55435478       2.36468537
C        1.97911211      -3.67767996       3.25391558
N        3.14896798      -4.10340758       3.62380235
N        3.11538446      -5.12680875       4.53256967
C        2.58461241      -5.07393193       5.81452025
S        1.63725426      -3.93814257       6.56937584
N        3.06145914      -6.21340893       6.45924096
H        2.92941748      -6.45202215       7.43484074
N        3.95934570      -6.87347500       5.66725170
C        3.96951667      -6.19858582       4.54583980
C        4.86112533      -6.54685345       3.42910381
C        6.20863439      -6.76343285       3.76544685
C        7.13216972      -7.15002150       2.79382582
C        6.71808316      -7.32409101       1.47704197
C        5.37681462      -7.13504214       1.13741058
C        4.43929110      -6.76480055       2.11255877
S        0.27821452      -2.20407189       1.73160459
H        2.77576939       0.14025254       0.59317831
H        3.82225320      -1.69346077       2.20801716
H        1.05259764      -4.18072384       3.58960539
H        6.54087863      -6.64405313       4.79580755
H        8.17018388      -7.32439379       3.06877887
H        7.43417011      -7.63027648       0.71738408
H        5.06650285      -7.30841959       0.10893094
C        3.05924358      -6.73874856       1.70220510
C        1.90345378      -6.71693003       1.35853390
Br       0.03463944      -6.68165130       0.80284663
