113
Properties=species:S:1:pos:R:3 pbc="F F F"
C        0.00000000       0.00000000       0.00000000
C        0.87182478       0.87182478      -0.87182478
C        2.10453125       0.49064529      -1.33786565
C        2.69978026       1.52347711      -2.12597494
C        1.88500178       2.63418800      -2.23104386
C        2.10199685       3.86939255      -2.93931825
N        3.25691608       4.16446807      -3.45479376
N        3.27579019       5.33597320      -4.16299949
C        2.54537796       5.61801175      -5.30967488
S        1.28742130       4.81721256      -6.04013882
N        3.12322864       6.76861786      -5.84226254
H        2.88439606       7.20934774      -6.72253658
N        4.24735889       7.10978622      -5.14292729
C        4.30742253       6.23826535      -4.16825441
C        5.41753496       6.21592100      -3.20362663
C        6.70938201       6.27347691      -3.75465519
C        7.83442474       6.31112007      -2.93047223
C        7.67939488       6.29184012      -1.54798113
C        6.39943724       6.25928873      -0.99054136
C        5.26344689       6.24040165      -1.81280189
Br       3.58251581       6.39573368      -0.94288023
S        0.41625383       2.42298429      -1.37465287
H        2.56385111      -0.46822948      -1.13307354
H        3.67090790       1.44999344      -2.60282979
H        1.24841405       4.57036579      -3.00414704
H        6.84190573       6.30352322      -4.83531036
H        8.82846283       6.36581581      -3.36907789
H        8.55398169       6.32604001      -0.90180897
H        6.29827198       6.27833425       0.09275285
C       -0.87182478      -0.87182478      -0.87182478
C       -0.43717309      -2.02900249      -1.46686662
C       -1.47628723      -2.63312519      -2.23981989
C       -2.65361705      -1.91244505      -2.18417155
C       -3.92670957      -2.18295635      -2.80104173
N       -4.06686974      -3.11905977      -3.69024840
N       -5.35416841      -3.30149067      -4.11910380
C       -6.43391871      -3.69783537      -3.34131052
S       -6.61775429      -3.83066182      -1.69635657
N       -7.42980315      -4.05714380      -4.24716209
H       -8.32889249      -4.46573768      -4.02165021
N       -6.95054305      -4.02243008      -5.52709927
C       -5.72402131      -3.58105987      -5.40886110
C       -4.82300781      -3.45006416      -6.56401063
C       -4.75511611      -4.56471819      -7.41767980
C       -3.97256744      -4.53125118      -8.57219842
C       -3.25064192      -3.38374408      -8.88483014
C       -3.33054579      -2.26262794      -8.05609361
C       -4.13005125      -2.28260586      -6.90399332
Br      -4.31267385      -0.64022233      -5.96823354
S       -2.49227230      -0.51412219      -1.20749649
H        0.56344010      -2.42936741      -1.36276786
H       -1.36926719      -3.55688317      -2.79758078
H       -4.77767345      -1.54123329      -2.50402014
H       -5.32736895      -5.46310119      -7.19026917
H       -3.93636782      -5.39690081      -9.23008791
H       -2.64312732      -3.35191796      -9.78678539
H       -2.78475302      -1.36363634      -8.33546403
C       -0.87182478       0.87182478       0.87182478
C       -0.48730503       2.10079092       1.34494625
C       -1.51161098       2.68649292       2.15112842
C       -2.62954717       1.87980512       2.24088135
C       -3.87162550       2.10449724       2.93458490
N       -4.01978916       3.09490895       3.76147980
N       -5.28276586       3.21621020       4.27578681
C       -6.44413061       3.47044121       3.55849277
S       -6.75720844       3.45977079       1.92779344
N       -7.39652364       3.82633880       4.51124660
H       -8.33899011       4.14933588       4.32795438
N       -6.82403440       3.92738252       5.74865547
C       -5.57849219       3.56862824       5.56682185
C       -4.58820203       3.59486383       6.65401673
C       -4.54614083       4.77516261       7.41621067
C       -3.68134715       4.88968350       8.50498639
C       -2.85057779       3.82597201       8.84266633
C       -2.90225717       2.64033347       8.10667670
C       -3.78267312       2.51135582       7.02262149
Br      -3.90329220       0.79155421       6.22628331
S       -2.43035174       0.42450367       1.35903557
H        0.46847818       2.56357263       1.13360072
H       -1.43719852       3.65658053       2.62995208
H       -4.68887187       1.38111362       2.75294139
H       -5.20230271       5.60879186       7.16964473
H       -3.66548242       5.80471007       9.09316405
H       -2.17834140       3.90951255       9.69397672
H       -2.26856903       1.80825653       8.40702783
C        0.87182478      -0.87182478       0.87182478
C        1.83529999      -0.38138258       1.71635963
C        2.50665243      -1.43986034       2.40271955
C        2.01202071      -2.68229699       2.05591594
C        2.39730603      -3.98844691       2.52495471
N        3.45656593      -4.16407881       3.25553317
N        3.63839454      -5.45120400       3.68516433
C        2.78807401      -6.17188777       4.51310281
S        1.23997546      -5.87158061       5.03321661
N        3.52711990      -7.27714481       4.92984433
H        3.23693147      -7.97496974       5.60437917
N        4.82090136      -7.18052004       4.49865101
C        4.84805919      -6.08894450       3.77693859
C        6.08715442      -5.58254681       3.16738136
C        7.20505036      -5.51558886       4.01687488
C        8.44505587      -5.09982780       3.53113338
C        8.57992790      -4.74725519       2.19203305
C        7.48118376      -4.83360268       1.33448089
C        6.23623783      -5.26878273       1.81162986
Br       4.87431499      -5.53218407       0.51463066
S        0.74996192      -2.56019924       0.90372983
H        2.05604998       0.67096359       1.84360879
H        3.30311018      -1.29617508       3.12444587
H        1.76583611      -4.84236392       2.21472685
H        7.11427532      -5.80294279       5.06352120
H        9.30498150      -5.06197954       4.19639549
H        9.54632440      -4.42725029       1.80825598
H        7.61505103      -4.58529560       0.28350676
