142
Properties=species:S:1:pos:R:3 pbc="F F F"
C        1.78172881       1.78172881      -1.78172881
C        3.01443527       1.40054932      -2.24776968
C        3.60968428       2.43338114      -3.03587897
C        2.79490581       3.54409203      -3.14094788
C        3.01190088       4.77929658      -3.84922227
N        4.16682010       5.07437209      -4.36469779
N        4.18569421       6.24587722      -5.07290351
C        3.45528199       6.52791578      -6.21957890
S        2.19732532       5.72711659      -6.95004284
N        4.03313266       7.67852188      -6.75216657
H        3.79430008       8.11925177      -7.63244060
N        5.15726291       8.01969025      -6.05283131
C        5.21732655       7.14816937      -5.07815844
C        6.32743898       7.12582502      -4.11353066
C        7.61928603       7.18338093      -4.66455921
C        8.74432877       7.22102410      -3.84037625
C        8.58929891       7.20174414      -2.45788516
C        7.30934127       7.16919276      -1.90044539
C        6.17335091       7.15030567      -2.72270591
S        1.32615785       3.33288832      -2.28455689
H        3.47375514       0.44167454      -2.04297756
H        4.58081193       2.35989747      -3.51273381
H        2.15831807       5.48026981      -3.91405107
H        7.75180975       7.21342724      -5.74521438
H        9.73836685       7.27571984      -4.27898192
H        9.46388571       7.23594403      -1.81171300
H        7.20817601       7.18823828      -0.81715118
C        4.89875011       7.26808940      -2.06306980
C        3.83127194       7.36673327      -1.51062456
Br       2.10525003       7.52623207      -0.61736733
C       -1.78172881      -1.78172881      -1.78172881
C       -3.15294467      -1.76878162      -1.74102799
C       -3.70517513      -2.70565607      -2.66811319
C       -2.72702133      -3.37570346      -3.37722093
C       -2.85939122      -4.37662553      -4.40440298
N       -4.00403075      -4.92764991      -4.67420933
N       -3.97558913      -5.79948111      -5.72940470
C       -3.66646103      -5.48928737      -7.04702827
S       -3.01398584      -4.12589768      -7.73460123
N       -4.07964505      -6.59131914      -7.79285692
H       -4.07232923      -6.67097050      -8.80269272
N       -4.74263244      -7.48669106      -7.00046098
C       -4.66709585      -6.98094588      -5.79561263
C       -5.31503039      -7.61460455      -4.63715972
C       -6.65658076      -7.99375094      -4.81689448
C       -7.35347370      -8.65017973      -3.80207569
C       -6.71653800      -8.93419757      -2.59819264
C       -5.37682248      -8.58341026      -2.41874666
C       -4.66458163      -7.94027596      -3.44150490
S       -1.15579507      -2.87369914      -2.91410885
H       -3.73747031      -1.13100750      -1.08992943
H       -4.76666942      -2.87000832      -2.81676547
H       -1.93788361      -4.67634937      -4.93840598
H       -7.16072855      -7.78926952      -5.76045331
H       -8.38838031      -8.94745538      -3.95723292
H       -7.25502169      -9.45032476      -1.80619630
H       -4.88707020      -8.84391330      -1.48258196
C       -3.25356392      -7.75239176      -3.22395364
C       -2.07183659      -7.59503873      -3.04175445
Br      -0.16108345      -7.34061220      -2.74715378
C       -1.78172881       1.78172881       1.78172881
C       -1.40097465       2.24687510       3.01490452
C       -2.43369946       3.03522695       3.61001797
C       -3.54390004       3.14136316       2.79468252
C       -4.77883204       3.85020194       3.01138574
N       -5.07426216       4.36520092       4.16642691
N       -6.24538495       5.07404550       4.18504450
C       -6.52638303       6.22128166       3.45511198
S       -5.72448184       6.95199846       2.19800445
N       -7.67701404       6.75418690       4.03262017
H       -8.11712358       7.63483737       3.79403150
N       -8.01919310       6.05441809       5.15617328
C       -7.14824590       5.07922902       5.21617944
C       -7.12705159       4.11397400       6.32576908
C       -7.18501839       4.66431843       7.61788935
C       -7.22374203       3.83953317       8.74245392
C       -7.20514222       2.45711772       8.58666827
C       -7.17219007       1.90036935       7.30641999
C       -7.15221750       2.72324864       6.17089635
S       -3.33235661       2.28566922       1.32557723
H       -0.44246832       2.04129688       3.47464204
H       -2.36049001       3.51150277       4.58145043
H       -5.47929587       3.91589237       2.15745071
H       -7.21453934       5.74491650       7.75099555
H       -7.27874585       4.27761819       9.73670457
H       -7.24018507       1.81048008       9.46087759
H       -7.19177979       0.81714209       7.20464358
C       -7.26966003       2.06438434       4.89586494
C       -7.36801814       1.51258549       3.82802614
Br      -7.52705490       0.62037342       2.10142111
C        1.78172881      -1.78172881       1.78172881
C        1.81129109      -3.15088814       1.70057504
C        2.71889388      -3.70453471       2.65551581
C        3.34432061      -2.72853958       3.40708553
C        4.32739137      -2.86177308       4.45125527
N        4.62799165      -4.01852769       4.95937064
N        5.63708165      -3.98344574       5.88394756
C        6.95076556      -3.59575726       5.65625384
S        7.66935927      -2.84255935       4.36256613
N        7.66253461      -4.02782152       6.77346498
H        8.66567793      -3.97582877       6.90448575
N        6.86249454      -4.77282998       7.59445996
C        5.68117853      -4.72997632       7.03249950
C        4.52784636      -5.46436237       7.57458593
C        4.75687672      -6.81317508       7.89717437
C        3.74821024      -7.59062243       8.46689645
C        2.50127333      -7.02775165       8.71990323
C        2.27125549      -5.68219352       8.42553040
C        3.28642203      -4.88972696       7.87021351
S        2.82688969      -1.15805963       2.95865374
H        1.22221167      -3.73305802       1.00313755
H        2.91308141      -4.76458562       2.77577618
H        4.79888732      -1.93195544       4.82179620
H        5.73355564      -7.26018040       7.71671534
H        3.94112360      -8.63057790       8.72136711
H        1.71362010      -7.62930995       9.16861268
H        1.29997902      -5.25203258       8.66155386
C        3.00691482      -3.48314181       7.73985269
C        2.77282753      -2.30512675       7.63067550
Br       2.39432818      -0.40037603       7.45414522
C       -0.00445707       0.01189536      -1.78238275
H       -0.66409135       0.67374010      -2.43557963
H        0.65740317      -0.63156657      -2.45157240
C       -0.90989263      -0.90692880      -0.91072765
C        0.90977584       0.90977584      -0.90977584
C       -0.00465871       1.77757030       0.00794375
H       -0.66225468       2.44313916      -0.64384735
H        0.64322798       2.43503045       0.67728295
C       -1.78241447       0.00034974      -0.00472694
H       -2.45427497      -0.65498947       0.64260836
H       -2.43311707       0.67328779      -0.65473579
C       -0.91132561       0.90220522       0.91563759
C       -0.01476271      -0.02253852       1.78660255
H       -0.67934791      -0.69751639       2.42135241
H        0.63392994       0.61504881       2.47327442
C        0.01484550      -1.77751727      -0.01636693
H        0.67870853      -2.42144646      -0.68295456
H       -0.62264859      -2.45592969       0.64226336
C        1.78714474       0.01002794       0.00389507
H        2.44202412       0.67113390       0.66197326
H        2.45385902      -0.65136977      -0.64189061
C        0.91606151      -0.90478549       0.90901405
