153
Properties=species:S:1:pos:R:3 pbc="F F F"
C        0.00000000       0.00000000       0.00000000
C        0.88162250       0.88162250      -0.88162250
C        2.15922976       1.23820263      -0.45007264
C        2.97157998       2.03558069      -1.26195840
C        2.50415741       2.47609518      -2.50430767
C        1.21793809       2.11013870      -2.92754283
C        0.40571523       1.31518633      -2.11704299
C        3.34153183       3.29157657      -3.38726376
C        3.34096405       4.63210870      -3.34313189
C        2.60298772       5.59832104      -2.45428389
H        1.57263481       5.26223746      -2.28895852
C        3.31642720       5.84387118      -1.13019285
C        2.69532995       5.48135342       0.07644140
C        3.32522236       5.71317155       1.30418302
C        4.58364696       6.30841913       1.33717808
C        5.22178226       6.67224007       0.15636944
C        4.59150843       6.44060333      -1.07031828
N        2.52976280       6.81762023      -3.25106117
C        1.69640794       7.93528256      -2.87139410
C        3.38649630       6.83088860      -4.32890393
O        3.61624576       7.72402622      -5.11482229
C        3.99940122       5.42946521      -4.39864655
O        4.82059493       5.02244114      -5.19433163
O        4.04146556       2.54954441      -4.31501971
H        2.53716943       0.88833756       0.50757615
H        3.97440457       2.29273164      -0.92805509
H        0.85183020       2.42334140      -3.90356770
H       -0.58349545       1.02831824      -2.46510130
H        1.71172553       5.01483376       0.07526311
H        2.82543018       5.42925873       2.22621609
H        6.20177226       7.13921767       0.17477426
H        5.11309620       6.74793229      -1.97506509
H        1.75113335       8.72794460      -3.62195418
H        2.03153758       8.32980204      -1.90866424
H        0.66226642       7.58910575      -2.78717406
H        4.58731722       3.15064612      -4.86748288
C        5.22907851       6.55252668       2.60107270
C        5.76962744       6.75696676       3.65958444
Br       6.64364933       7.08752907       5.37110841
C       -0.88162250      -0.88162250      -0.88162250
C       -2.03857014      -1.45496421      -0.35397068
C       -2.85262676      -2.25263849      -1.16385382
C       -2.50749276      -2.47652980      -2.50053769
C       -1.34206328      -1.89378894      -3.01976740
C       -0.52803147      -1.09835461      -2.21155847
C       -3.35357322      -3.28697926      -3.37981968
C       -3.18872360      -4.61103860      -3.51644244
C       -2.22916452      -5.56760193      -2.85882620
H       -1.23292915      -5.11813488      -2.77276677
C       -2.72432569      -6.06140174      -1.50476380
C       -1.99406816      -5.76388891      -0.34228490
C       -2.42158695      -6.22157889       0.90895494
C       -3.58497465      -6.98008125       1.01016788
C       -4.32837434      -7.28421468      -0.12506387
C       -3.90031736      -6.82677647      -1.37533622
N       -2.12004921      -6.66328575      -3.81510924
C       -1.11711858      -7.69589942      -3.69006661
C       -3.10611236      -6.66403015      -4.77614632
O       -3.33216106      -7.48076965      -5.64216357
C       -3.88405982      -5.35924626      -4.58420690
O       -4.84692634      -4.97503526      -5.21540609
O       -4.25444274      -2.54127826      -4.11030868
H       -2.32317782      -1.27461371       0.67986069
H       -3.76407736      -2.67972669      -0.75138726
H       -1.07589492      -2.03748570      -4.06535867
H        0.36461360      -0.64218388      -2.63235380
H       -1.08159126      -5.17269462      -0.39701029
H       -1.83960262      -5.98406809       1.79519789
H       -5.23492819      -7.87740935      -0.05387812
H       -4.49865881      -7.09229428      -2.24514049
H       -1.17808745      -8.39446192      -4.52848276
H       -1.27098510      -8.24278627      -2.75623250
H       -0.12923703      -7.22641168      -3.68289753
H       -4.79465499      -3.14070825      -4.67008298
C       -4.02147645      -7.45621977       2.29716372
C       -4.38704671      -7.85498578       3.37502273
Br      -4.97814290      -8.49975669       5.11782959
C       -0.88162250       0.88162250       0.88162250
C       -2.27014017       0.77440048       0.80296438
C       -3.07788964       1.57283258       1.61839686
C       -2.49529498       2.47839185       2.51087342
C       -1.09785513       2.57639233       2.58137216
C       -0.29066098       1.78059758       1.76668599
C       -3.31509840       3.30996624       3.39530752
C       -3.74659635       4.52929510       3.04031318
C       -3.58005135       5.31144522       1.76409608
H       -2.56532383       5.19181215       1.36669481
C       -4.62391044       4.95357799       0.71300280
C       -4.22140171       4.38614742      -0.50730716
C       -5.16150682       4.06553991      -1.49283584
C       -6.51403289       4.30771944      -1.26686432
C       -6.93867740       4.86423134      -0.06525585
C       -5.99852554       5.18476360       0.91914091
N       -3.70947185       6.70080486       2.18816749
C       -3.38348128       7.80478898       1.31481434
C       -4.24905816       6.85123545       3.44599522
O       -4.55711570       7.86614486       4.03183371
C       -4.35565662       5.44042020       4.03143616
O       -4.79648329       5.12382359       5.11706081
O       -3.50804794       2.75518252       4.64279922
H       -2.73220531       0.06275413       0.12297141
H       -4.15948597       1.46927616       1.56642918
H       -0.63083354       3.25732207       3.29058368
H        0.79107842       1.85808040       1.84292211
H       -3.16961711       4.18795102      -0.70627196
H       -4.82859479       3.63150320      -2.43162517
H       -7.99131926       5.05827744       0.11661897
H       -6.36290372       5.62979301       1.84339685
H       -3.50722689       8.75718020       1.83662504
H       -4.04151140       7.78629523       0.44219724
H       -2.34308280       7.70227215       0.99319129
H       -4.06972923       3.35393521       5.18178178
C       -7.48077159       3.98340164      -2.28364073
C       -8.29041524       3.71178549      -3.13519097
Br      -9.59954056       3.27260513      -4.51207569
C        0.88162250      -0.88162250       0.88162250
C        1.91159099      -1.62747298       0.30844106
C        2.72680606      -2.42573779       1.11657523
C        2.50978444      -2.47755390       2.49722191
C        1.47143112      -1.72230838       3.06188011
C        0.65620309      -0.92609668       2.25564478
C        3.36301577      -3.28511820       3.37223818
C        3.08435442      -4.56318421       3.66866600
C        1.96890355      -5.46904167       3.21764743
H        1.01844847      -4.92384151       3.18154082
C        2.26163164      -6.14522598       1.88363361
C        1.44135068      -5.88561208       0.77327920
C        1.68199970      -6.50853098      -0.45631979
C        2.74679035      -7.39616998      -0.58807231
C        3.57643230      -7.66645889       0.49476172
C        3.33512015      -7.04382547       1.72348443
N        1.85767716      -6.44649722       4.29426982
C        0.75016748      -7.37030120       4.38261591
C        2.93817062      -6.46047160       5.14764661
O        3.17606898      -7.20764599       6.07137931
C        3.81527296      -5.27408568       4.73815434
O        4.87465624      -4.93729671       5.22541474
O        4.40760558      -2.57420434       3.92421977
H        2.09762842      -1.58222478      -0.76192235
H        3.54099996      -2.98868046       0.66551089
H        1.30853460      -1.73216332       4.13804137
H       -0.13561022      -0.33562774       2.70990657
H        0.60313815      -5.19552359       0.85263444
H        1.03271450      -6.29726360      -1.30150528
H        4.40678611      -8.35950040       0.39992916
H        3.99602106      -7.28620691       2.55386560
H        0.83342015      -7.98522822       5.28238376
H        0.74612579      -8.02016395       3.50371413
H       -0.18140880      -6.79843399       4.42152104
H        4.94412066      -3.17105833       4.49026723
C        2.99058810      -8.04184617      -1.85190177
C        3.19476872      -8.58259999      -2.91035895
Br       3.52491151      -9.45695317      -4.62179467
