145
Properties=species:S:1:pos:R:3 pbc="F F F"
C        0.00000000       0.00000000       0.00000000
C        0.88162250       0.88162250      -0.88162250
C        2.15922976       1.23820263      -0.45007264
C        2.97157998       2.03558069      -1.26195840
C        2.50415741       2.47609518      -2.50430767
C        1.21793809       2.11013870      -2.92754283
C        0.40571523       1.31518633      -2.11704299
C        3.34153183       3.29157657      -3.38726376
C        3.34096405       4.63210870      -3.34313189
C        2.60298772       5.59832104      -2.45428389
H        1.57263481       5.26223746      -2.28895852
C        3.31642720       5.84387118      -1.13019285
C        2.69532995       5.48135342       0.07644140
C        3.32522236       5.71317155       1.30418302
C        4.58364696       6.30841913       1.33717808
Br       5.43080096       6.62881978       2.99608889
C        5.22178226       6.67224007       0.15636944
C        4.59150843       6.44060333      -1.07031828
N        2.52976280       6.81762023      -3.25106117
C        1.69640794       7.93528256      -2.87139410
C        3.38649630       6.83088860      -4.32890393
O        3.61624576       7.72402622      -5.11482229
C        3.99940122       5.42946521      -4.39864655
O        4.82059493       5.02244114      -5.19433163
O        4.04146556       2.54954441      -4.31501971
H        2.53716943       0.88833756       0.50757615
H        3.97440457       2.29273164      -0.92805509
H        0.85183020       2.42334140      -3.90356770
H       -0.58349545       1.02831824      -2.46510130
H        1.71172553       5.01483376       0.07526311
H        2.82543018       5.42925873       2.22621609
H        6.20177226       7.13921767       0.17477426
H        5.11309620       6.74793229      -1.97506509
H        1.75113335       8.72794460      -3.62195418
H        2.03153758       8.32980204      -1.90866424
H        0.66226642       7.58910575      -2.78717406
H        4.58731722       3.15064612      -4.86748288
C       -0.88162250      -0.88162250      -0.88162250
C       -0.35284600      -1.45822474      -2.03643428
C       -1.15607019      -2.27520380      -2.83784509
C       -2.48780874      -2.51343194      -2.48331957
C       -3.00774517      -1.92864225      -1.31923219
C       -2.20692878      -1.11177640      -0.51923937
C       -3.34610889      -3.38470927      -3.28955399
C       -4.09989435      -2.91956897      -4.29674132
C       -4.24974790      -1.53521852      -4.87062623
H       -4.26743760      -0.78497516      -4.07141803
C       -3.17933202      -1.20670638      -5.90445283
C       -2.27613629      -0.15751275      -5.66659293
C       -1.29639185       0.17188223      -6.60970127
C       -1.20913753      -0.54615307      -7.79959741
Br       0.10918341      -0.09580500      -9.07691026
C       -2.08838835      -1.59239389      -8.05687066
C       -3.06758332      -1.92082876      -7.11401797
N       -5.57915879      -1.54917752      -5.47010789
C       -6.22627265      -0.34325320      -5.93355875
C       -6.10495449      -2.81171837      -5.62961597
O       -7.13582898      -3.15052471      -6.16874058
C       -5.13397218      -3.76543664      -4.92810417
O       -5.21585453      -4.97373520      -4.84777796
O       -3.36902561      -4.69031192      -2.84669215
H        0.68552129      -1.29102419      -2.31242794
H       -0.73126266      -2.73806934      -3.72585930
H       -4.03434792      -2.12738811      -1.01700325
H       -2.62033513      -0.67702690       0.38743794
H       -2.32536167       0.41773661      -4.74367111
H       -0.61042595       0.99001078      -6.40805766
H       -2.02785327      -2.15471149      -8.98365091
H       -3.74734329      -2.73729884      -7.35145144
H       -7.22931485      -0.56455278      -6.30716449
H       -5.63477624       0.10232186      -6.73754949
H       -6.29936565       0.35892014      -5.09810073
H       -3.95218217      -5.22195503      -3.43130902
C       -0.88162250       0.88162250       0.88162250
C       -1.83198091       0.29689586       1.71862825
C       -2.63143209       1.10274392       2.53494306
C       -2.47969762       2.49285867       2.51200397
C       -1.51997960       3.06892070       1.66671931
C       -0.72230650       2.26523122       0.85040683
C       -3.28537620       3.36097875       3.37401721
C       -4.46384080       3.86872165       2.98364219
C       -5.25060592       3.69356593       1.71142080
H       -4.58437908       3.69867862       0.84077310
C       -6.12219170       2.44349912       1.72480041
C       -5.88854181       1.41821902       0.79348114
C       -6.68742045       0.26957551       0.77721493
C       -7.72706848       0.13417677       1.69364276
Br      -8.81113518      -1.41384131       1.66623797
C       -7.97595662       1.13278881       2.62890747
C       -7.17737285       2.28069497       2.64436222
N       -6.06069308       4.90379890       1.63395222
C       -6.79913121       5.25984774       0.44410565
C       -6.12215002       5.60939314       2.81474566
O       -6.77484184       6.59327995       3.08697249
C       -5.13299543       4.92925287       3.76526468
O       -4.89254313       5.22800873       4.91681583
O       -2.66739080       3.67185063       4.56678826
H       -1.94716262      -0.78374318       1.75451140
H       -3.35626637       0.63872049       3.20020445
H       -1.37261733       4.14733477       1.65878719
H        0.02676811       2.72569106       0.21100115
H       -5.08166394       1.50211847       0.06751376
H       -6.49261692      -0.50970021       0.04555611
H       -8.78654002       1.03508911       3.34458653
H       -7.40622463       3.04841959       3.38144937
H       -7.30291892       6.22060234       0.57751087
H       -7.54600612       4.48984526       0.23415249
H       -6.10007756       5.33247372      -0.39400505
H       -3.25948356       4.24595807       5.10000459
C        0.88162250      -0.88162250       0.88162250
C        1.89230186      -1.65056825       0.30463492
C        2.70765726      -2.44893835       1.11252346
C        2.51006442      -2.47774116       2.49675467
C        1.49101273      -1.69940258       3.06520431
C        0.67564255      -0.90305768       2.25924432
C        3.36426954      -3.28500201       3.37110061
C        3.07162348      -4.55447836       3.69010280
C        1.93681480      -5.45036505       3.26841280
H        0.99386649      -4.89194166       3.23802265
C        2.20031742      -6.14984375       1.94033007
C        1.36775135      -5.89428045       0.83821016
C        1.58147340      -6.53824532      -0.38550783
C        2.63136566      -7.44311462      -0.51959226
Br       2.91493193      -8.31891295      -2.17031303
C        3.47273616      -7.70988260       0.55503415
C        3.25833424      -7.06620607       1.77788973
N        1.82726223      -6.41052424       4.36065773
C        0.70799838      -7.31671930       4.47836692
C        2.91976952      -6.42798553       5.19853378
O        3.16034854      -7.16519843       6.12954730
C        3.80776551      -5.26051910       4.75922838
O        4.87886972      -4.93224352       5.22625446
O        4.42690273      -2.58153427       3.89759268
H        2.06334611      -1.62342179      -0.76883705
H        3.50701574      -3.03011422       0.65806135
H        1.34369762      -1.69141724       4.14362443
H       -0.10089789      -0.29464164       2.71618035
H        0.54078725      -5.19097635       0.91953258
H        0.92303836      -6.32970107      -1.22426660
H        4.29157512      -8.41624693       0.45839362
H        3.92771966      -7.30623994       2.60213398
H        0.79551502      -7.91980237       5.38571474
H        0.68180649      -7.97901594       3.60918144
H       -0.21459835      -6.73083183       4.52231275
H        4.96298134      -3.17795127       4.46451361
