174
Properties=species:S:1:pos:R:3 pbc="F F F"
C        1.79152653       1.79152653      -1.79152653
C        3.06913378       2.14810665      -1.35997666
C        3.88148400       2.94548471      -2.17186243
C        3.41406143       3.38599920      -3.41421169
C        2.12784211       3.02004272      -3.83744685
C        1.31561926       2.22509036      -3.02694701
C        4.25143586       4.20148059      -4.29716778
C        4.25086807       5.54201272      -4.25303592
C        3.51289175       6.50822507      -3.36418791
H        2.48253883       6.17214148      -3.19886255
C        4.22633122       6.75377520      -2.04009687
C        3.60523397       6.39125744      -0.83346263
C        4.23512638       6.62307558       0.39427899
C        5.49355098       7.21832315       0.42727405
C        6.13168629       7.58214410      -0.75353459
C        5.50141245       7.35050736      -1.98022230
N        3.43966683       7.72752425      -4.16096519
C        2.60631197       8.84518659      -3.78129812
C        4.29640032       7.74079262      -5.23880795
O        4.52614978       8.63393025      -6.02472632
C        4.90930525       6.33936924      -5.30855058
O        5.73049895       5.93234516      -6.10423565
O        4.95136958       3.45944844      -5.22492374
H        3.44707345       1.79824159      -0.40232787
H        4.88430859       3.20263567      -1.83795912
H        1.76173422       3.33324542      -4.81347172
H        0.32640857       1.93822227      -3.37500532
H        2.62162955       5.92473778      -0.83464091
H        3.73533421       6.33916275       1.31631206
H        7.11167628       8.04912169      -0.73512976
H        6.02300022       7.65783631      -2.88496912
H        2.66103737       9.63784862      -4.53185820
H        2.94144161       9.23970606      -2.81856827
H        1.57217044       8.49900978      -3.69707809
H        5.49722124       4.06055015      -5.77738690
C        6.13898254       7.46243071       1.69116867
C        6.67953146       7.66687079       2.74968042
Br       7.55355336       7.99743310       4.46120438
C       -1.79152653      -1.79152653      -1.79152653
C       -1.58762017      -1.81844636      -3.17115057
C       -2.38663893      -2.63445768      -3.97773453
C       -3.38947609      -3.42181988      -3.40297635
C       -3.58421621      -3.38675684      -2.01435864
C       -2.78783855      -2.57135354      -1.20846454
C       -4.22556312      -4.30517437      -4.21934675
C       -5.38561482      -3.90187681      -4.75842508
C       -6.08489319      -2.56825549      -4.73215605
H       -6.00469560      -2.10889474      -3.73995253
C       -5.58553283      -1.61947789      -5.81519258
C       -4.96107673      -0.41388307      -5.45499423
C       -4.51028197       0.47942873      -6.43306973
C       -4.67804480       0.17490724      -7.78146252
C       -5.28885093      -1.01435870      -8.16415534
C       -5.73949388      -1.90654555      -7.18610269
N       -7.48917356      -2.90780349      -4.93117922
C       -8.54777214      -1.94265187      -4.74237266
C       -7.69218956      -4.18794589      -5.39586546
O       -8.72341905      -4.72583797      -5.73554932
C       -6.32232690      -4.87127642      -5.36362174
O       -6.05485067      -6.00386166      -5.70836743
O       -3.74881316      -5.59706725      -4.28986135
H       -0.80075832      -1.22125744      -3.62562716
H       -2.20852094      -2.66600926      -5.05037318
H       -4.34289749      -4.01470408      -1.55084980
H       -2.94172973      -2.56566716      -0.13223927
H       -4.81915387      -0.15459431      -4.40726007
H       -4.03389857       1.40870589      -6.13299222
H       -5.42537853      -1.25697203      -9.21357718
H       -6.22371489      -2.82285589      -7.51923488
H       -9.52441386      -2.40791543      -4.89841491
H       -8.42426954      -1.12185051      -5.45359589
H       -8.49166025      -1.55577047      -3.72082760
H       -4.34578789      -6.13370985      -4.85566055
C       -4.21959115       1.09719318      -8.78784660
C       -3.83563622       1.86960765      -9.63069326
Br      -3.21481358       3.11853652     -10.99350502
C       -1.79152653       1.79152653       1.79152653
C       -2.24587527       1.31148587       3.01985595
C       -3.04332798       2.12249416       3.83300900
C       -3.38608251       3.41256370       3.41562611
C       -2.92234342       3.88424381       2.17874446
C       -2.12723912       3.07475227       1.36566523
C       -4.19910821       4.29408563       4.25689039
C       -5.53767610       4.32883025       4.17941036
C       -6.50668794       3.54052563       3.33809115
H       -6.12037736       3.41313503       2.32003047
C       -6.86673293       2.19561929       3.95785108
C       -6.53583469       1.00607807       3.28804128
C       -6.87194567      -0.23896758       3.83094487
C       -7.54095919      -0.30667957       5.05032047
C       -7.87558849       0.85625225       5.73552423
C       -7.53969434       2.10027923       5.19216854
N       -7.67353062       4.41034419       3.24428146
C       -8.75966778       4.14373720       2.32939169
C       -7.67729449       5.43794615       4.16076026
O       -8.53743002       6.26099491       4.38638142
C       -6.31256377       5.39120397       4.85345732
O       -5.91096490       6.11486528       5.74124958
O       -3.44915386       5.13644166       5.05014623
H       -1.97243605       0.31547019       3.35973667
H       -3.37702630       1.74917862       4.79869845
H       -3.15891580       4.89576717       1.85376838
H       -1.76393517       3.45967714       0.41602385
H       -6.01302706       1.03439777       2.33358342
H       -6.61073818      -1.14694777       3.29439448
H       -8.39959545       0.81098955       6.68534274
H       -7.82647949       2.99119593       5.74813023
H       -9.51134078       4.93534822       2.38405519
H       -9.22595059       3.18873240       2.58503294
H       -8.35857778       4.09680456       1.31287596
H       -4.04970858       5.69212690       5.59332282
C       -7.89223618      -1.58790020       5.60590860
C       -8.18643065      -2.66092248       6.07121366
Br      -8.66211824      -4.39590875       6.82357258
C        1.79152653      -1.79152653       1.79152653
C        2.73823012      -2.63246831       1.20651867
C        3.55399819      -3.43121073       2.01362222
C        3.42079618      -3.38831320       3.40516295
C        2.46575838      -2.53798821       3.98158510
C        1.64997532      -1.74117915       3.17650215
C        4.27806453      -4.19476711       4.27725260
C        3.94392633      -5.43338188       4.66860850
C        2.75131328      -6.29284163       4.34114981
H        1.83408006      -5.69251395       4.32694886
C        2.92014275      -7.06305103       3.03700952
C        2.04888859      -6.81839639       1.96266906
C        2.17546367      -7.52616405       0.76229525
C        3.17606016      -8.48464823       0.62389169
C        4.05429922      -8.74213670       1.67092904
C        3.92699208      -8.03466354       2.87048649
N        2.65026432      -7.19661641       5.48127555
C        1.49813187      -8.04281009       5.69185471
C        3.77916757      -7.22782904       6.26900429
O        4.02994094      -7.93289987       7.22196554
C        4.69712398      -6.12449468       5.73560640
O        5.80275006      -5.82639364       6.13793606
O        5.39493381      -3.51919533       4.72161262
H        2.85951793      -2.66177553       0.12634946
H        4.30406161      -4.06930172       1.55154005
H        2.36996430      -2.47451999       5.06396708
H        0.92402448      -1.07687044       3.63874125
H        1.25918313      -6.07393528       2.04788983
H        1.48827075      -7.32478145      -0.05486731
H        4.83503679      -9.48995809       1.57093286
H        4.62300995      -8.26863858       3.67415713
H        1.60109157      -8.60788497       6.62176766
H        1.40119444      -8.74159628       4.85692521
H        0.60594845      -7.41268951       5.74962035
H        5.92975003      -4.11409535       5.29131292
C        3.30230360      -9.21729407      -0.60935309
C        3.40803248      -9.83088495      -1.64219559
Br       3.57898713     -10.82300951      -3.31221456
C       -0.00445707       0.01189536      -1.78238275
H       -0.66409135       0.67374010      -2.43557963
H        0.65740317      -0.63156657      -2.45157240
C       -0.90989263      -0.90692880      -0.91072765
C        0.90977584       0.90977584      -0.90977584
C       -0.00465871       1.77757030       0.00794375
H       -0.66225468       2.44313916      -0.64384735
H        0.64322798       2.43503045       0.67728295
C       -1.78241447       0.00034974      -0.00472694
H       -2.45427497      -0.65498947       0.64260836
H       -2.43311707       0.67328779      -0.65473579
C       -0.91132561       0.90220522       0.91563759
C       -0.01476271      -0.02253852       1.78660255
H       -0.67934791      -0.69751639       2.42135241
H        0.63392994       0.61504881       2.47327442
C        0.01484550      -1.77751727      -0.01636693
H        0.67870853      -2.42144646      -0.68295456
H       -0.62264859      -2.45592969       0.64226336
C        1.78714474       0.01002794       0.00389507
H        2.44202412       0.67113390       0.66197326
H        2.45385902      -0.65136977      -0.64189061
C        0.91606151      -0.90478549       0.90901405
