129
Properties=species:S:1:pos:R:3 pbc="F F F"
C        0.00000000       0.00000000       0.00000000
C        0.88321935       0.88321935      -0.88321935
C        1.12180490       2.20525560      -0.51158113
C        1.92959578       3.00801503      -1.31488213
C        2.48196185       2.48194964      -2.48121851
O        3.27258547       3.32127223      -3.22340037
C        2.24696550       1.15279876      -2.87589444
C        2.81900951       0.52675986      -4.08533344
H        2.79057125      -0.56068420      -4.11130194
N        3.39955965       1.28426025      -5.03594583
N        4.00171438       0.45924160      -6.04281989
C        3.33324328      -0.20514606      -7.05148560
S        1.72044919      -0.48516043      -7.34299041
N        4.33513594      -0.63997269      -7.91908894
H        4.19314715      -1.10546857      -8.80017120
N        5.55881907      -0.16562298      -7.52794549
C        5.32255739       0.50618232      -6.42898152
C        6.37550965       1.21588463      -5.66246013
C        6.34159720       1.16894415      -4.25764141
C        7.31520648       1.80562873      -3.48370574
C        8.36636054       2.46817260      -4.10234687
C        8.43676614       2.50051608      -5.49509909
C        7.44433866       1.88447404      -6.27803495
Br       7.64441997       2.08578916      -8.15998328
C        1.44084414       0.35641106      -2.05030276
H        0.68692706       2.61809211       0.39333673
H        2.13041328       4.03920259      -1.04459192
H        3.48924425       2.78125038      -4.02498989
H        5.54285658       0.63333704      -3.74967145
H        7.23531126       1.78024807      -2.39940247
H        9.12614169       2.96241400      -3.50490062
H        9.26419107       3.02032673      -5.96797305
H        1.24505915      -0.67466171      -2.33010845
C       -0.88321935      -0.88321935      -0.88321935
C       -0.83403638      -0.73618556      -2.26841969
C       -1.63626572      -1.54382736      -3.07239986
C       -2.48125849      -2.48176748      -2.48210402
O       -3.23915577      -3.24949238      -3.32860992
C       -2.54951329      -2.63975473      -1.08639068
C       -3.40455429      -3.62831350      -0.39823503
H       -3.14685686      -3.83321967       0.63888753
N       -4.38052118      -4.27030160      -1.06894295
N       -4.98584467      -5.27470244      -0.24322877
C       -5.89808531      -5.04961658       0.76811907
S       -6.43189483      -3.66568906       1.51930472
N       -6.39294691      -6.31295960       1.09165433
H       -7.12886056      -6.50883565       1.74984643
N       -5.89720877      -7.26383104       0.23989823
C       -5.08892430      -6.61133304      -0.55746389
C       -4.33726697      -7.25331634      -1.66327109
C       -3.00870026      -6.85898022      -1.90050228
C       -2.24712221      -7.43936491      -2.91805383
C       -2.78797648      -8.45629697      -3.69260656
C       -4.09376745      -8.88482618      -3.45378767
C       -4.87318049      -8.28483374      -2.44883342
Br      -6.65767396      -8.93014232      -2.30237613
C       -1.72763179      -1.82646390      -0.29346227
H       -0.18098330      -0.00155431      -2.72914482
H       -1.61330832      -1.44819432      -4.15270515
H       -3.80631334      -3.77751625      -2.71165493
H       -2.55352241      -6.08285821      -1.28948445
H       -1.23565345      -7.08215834      -3.09715000
H       -2.19910327      -8.91148062      -4.48287243
H       -4.50577564      -9.68193451      -4.06478071
H       -1.75854146      -1.92933354       0.78736911
C       -0.88321935       0.88321935       0.88321935
C       -1.12449669       0.50986247       2.20428247
C       -1.92619578       1.31705296       3.00924420
C       -2.48133907       2.48161614       2.48217478
O       -3.25464079       3.23485772       3.32775956
C       -2.25476397       2.87091526       1.14997948
C       -2.79279271       4.10207239       0.53623772
H       -2.31177706       4.41700330      -0.38759136
N       -3.76369339       4.80345309       1.15261926
N       -4.03101849       6.02410976       0.44864763
C       -4.75663120       6.14267839      -0.71972677
S       -5.35098040       5.02496250      -1.79766372
N       -4.97178509       7.51260008      -0.87013298
H       -5.52698087       7.94854271      -1.58767381
N       -4.50283482       8.20217216       0.21613460
C       -3.97725504       7.28793251       0.99253367
C       -3.35856149       7.58872647       2.30656645
C       -2.18055830       6.91438880       2.67323566
C       -1.54520155       7.16774858       3.89159082
C       -2.05468420       8.13223701       4.74995880
C       -3.20485925       8.83557615       4.39194591
C       -3.86303621       8.56463120       3.17918024
Br      -5.45978847       9.55483062       2.87557331
C       -1.43705549       2.05272175       0.35778072
H       -0.69787733      -0.40032828       2.61413338
H       -2.12623356       1.04726060       4.04071364
H       -3.60119649       3.95351043       2.74077761
H       -1.74685623       6.17334839       2.00566045
H       -0.65718538       6.59941577       4.15836064
H       -1.56304710       8.33379848       5.69661074
H       -3.59339636       9.58867197       5.07042252
H       -1.24346010       2.33112941      -0.67408362
C        0.88321935      -0.88321935       0.88321935
C        1.34956814      -2.10017574       0.38889776
C        2.15720345      -2.90239167       1.19289783
C        2.48205169      -2.48184516       2.48123314
O        3.28550128      -3.31348505       3.21827174
C        2.01538888      -1.26070235       2.99956748
C        2.34017764      -0.74559468       4.34533049
H        2.15588510       0.31548358       4.50078748
N        2.90006517      -1.55209023       5.26761032
N        3.25136033      -0.80927828       6.44313726
C        2.37687301      -0.38102968       7.42168012
S        0.71721680      -0.34568227       7.51538010
N        3.19295725       0.04733668       8.46863163
H        2.87938221       0.36302782       9.37149539
N        4.51001873      -0.21281168       8.19831117
C        4.50791945      -0.74707500       7.00272677
C        5.73665226      -1.20658126       6.31062089
C        5.86977449      -0.96678980       4.93161848
C        7.01119492      -1.36329719       4.23004884
C        8.06089374      -1.97178834       4.90419793
C        7.96305065      -2.19104587       6.27828478
C        6.80494304      -1.81840209       6.98350251
Br       6.79802411      -2.25657281       8.83559548
C        1.21303679      -0.46140051       2.17312066
H        1.09198400      -2.43183946      -0.61214103
H        2.53300337      -3.85256238       0.82864204
H        3.32353536      -2.86920968       4.10273948
H        5.07227668      -0.46748820       4.38610019
H        7.06270160      -1.19549099       3.15676921
H        8.95046035      -2.27956490       4.36343107
H        8.79082453      -2.66635364       6.79531268
H        0.84102454       0.48793717       2.54741852
