129
Properties=species:S:1:pos:R:3 pbc="F F F"
C        0.00000000       0.00000000       0.00000000
C        0.88099897       0.88099897      -0.88099897
C        0.49158548       2.18276024      -1.16972231
C        1.30387458       2.98990633      -1.97602299
C        2.51918350       2.51591543      -2.50710917
C        2.88181010       1.19300348      -2.19929059
C        2.07223791       0.38134237      -1.39334348
N        3.35452608       3.36375811      -3.32861156
C        4.74528638       3.14051554      -3.40543907
O        5.35746807       2.47091184      -2.57563926
N        5.45742999       3.73812836      -4.42401275
C        5.00811339       4.84105394      -4.89344256
O        5.68601131       5.45663838      -5.87561169
C        3.75476576       5.44030578      -4.46502042
C        3.58442884       6.77175954      -4.40057682
C        2.44547625       7.38067560      -3.80467203
C        1.85474385       8.60431589      -4.09837590
C        0.76015648       8.78144954      -3.21605137
C        0.74536274       7.67142285      -2.40967318
O        1.76135672       6.83785986      -2.74110868
C        2.77351285       4.42434267      -4.01961380
O        1.60119987       4.51314377      -4.37829105
H       -0.43600655       2.58781991      -0.77338952
H        0.96639209       4.00975422      -2.15082335
H        3.79168861       0.74607801      -2.59416854
H        2.38616382      -0.63680868      -1.17734114
H        5.20412863       6.16952194      -6.32060346
H        4.36372887       7.44927197      -4.73673721
H        2.17113825       9.28690698      -4.87566858
H        0.07308142       9.61498333      -3.17623027
C       -0.20038252       7.41887265      -1.35355561
C       -0.99244416       7.20736187      -0.46905715
Br      -2.27314086       6.86536682       0.96110206
C       -0.88099897      -0.88099897      -0.88099897
C       -0.73569379      -0.84633534      -2.26203890
C       -1.54360393      -1.65843714      -3.06776284
C       -2.50874169      -2.52094215      -2.51252426
C       -2.63310457      -2.52876780      -1.11223179
C       -1.82736447      -1.71774407      -0.30181522
N       -3.32842631      -3.36318771      -3.35528173
C       -3.86864607      -4.56678441      -2.85581051
O       -3.43624422      -5.12081583      -1.84695913
N       -4.89062856      -5.17489335      -3.55404919
C       -4.93983361      -4.98389745      -4.81887883
O       -5.91371366      -5.57395883      -5.53058890
C       -4.02990283      -4.10052753      -5.52966160
C       -3.61663516      -4.35791090      -6.78221914
C       -2.58379050      -3.62143768      -7.42559570
C       -2.40027730      -3.37567044      -8.78148789
C       -1.21352680      -2.61544071      -8.92868987
C       -0.71422162      -2.45092794      -7.66130920
O       -1.51612340      -3.06598602      -6.75821584
C       -3.55286150      -2.98715738      -4.67745045
O       -3.51227063      -1.84656498      -5.13379908
H        0.00242529      -0.19899479      -2.72863339
H       -1.37241358      -1.61293893      -4.14161715
H       -3.37405412      -3.14743751      -0.61044354
H       -1.95291975      -1.75128916       0.77751264
H       -6.01905410      -5.24101598      -6.43418395
H       -4.00858839      -5.20721607      -7.33393358
H       -3.06042756      -3.69756624      -9.57572001
H       -0.78068545      -2.23881885      -9.84479072
C        0.49116176      -1.73877075      -7.32443676
C        1.50067034      -1.14233910      -7.04230609
Br       3.13296033      -0.17795957      -6.58612466
C       -0.88099897       0.88099897       0.88099897
C       -0.57004535       1.04973590       2.22428678
C       -1.37877754       1.86147606       3.02955030
C       -2.50993445       2.52125348       2.51102018
C       -2.79895336       2.32600101       1.14914980
C       -1.99305606       1.51443400       0.33943370
N       -3.32992312       3.36623616       3.35073647
C       -4.08228664       4.41934536       2.78960899
O       -3.85066948       4.87994269       1.67340701
N       -5.08692102       4.99062138       3.54202870
C       -4.96006260       4.96692525       4.81562205
O       -5.91335246       5.52794546       5.57696346
C       -3.86201927       4.30100074       5.49707196
C       -3.34188954       4.77148515       6.64339052
C       -2.15063838       4.25555904       7.22462646
C       -1.77668950       4.21774215       8.56300399
C       -0.48950907       3.62994462       8.63820370
C       -0.12605141       3.35676805       7.34363930
O       -1.10448676       3.74564088       6.49019762
C       -3.34380706       3.14747939       4.72618288
O       -3.09656810       2.09146775       5.30459885
H        0.29835274       0.56287955       2.66067608
H       -1.07723167       1.98131959       4.06841839
H       -3.67044431       2.77958394       0.68190691
H       -2.24874484       1.38749200      -0.70954056
H       -5.86536366       5.30939589       6.51949448
H       -3.77643010       5.63487620       7.13843175
H       -2.37550980       4.56312909       9.39507492
H        0.09531516       3.43375429       9.52585589
C        1.11574645       2.75339516       6.93439704
C        2.15575216       2.24807036       6.59165665
Br       3.83735343       1.43100290       6.03747443
C        0.88099897      -0.88099897       0.88099897
C        0.41712735      -2.11868164       1.30825905
C        1.22931081      -2.92632861       2.11416448
C        2.51841699      -2.51687822       2.50691289
C        2.95571297      -1.25740796       2.06098323
C        2.14661021      -0.44547817       1.25483539
N        3.35161470      -3.36571668       3.32956436
C        4.75704351      -3.25559593       3.27860154
O        5.34716977      -2.70688978       2.34995962
N        5.50403131      -3.83008497       4.28545483
C        5.01143569      -4.85110030       4.88007391
O        5.71992527      -5.44338269       5.85495343
C        3.68346329      -5.37376124       4.60286743
C        3.40502975      -6.68699514       4.66474031
C        2.17577455      -7.24198550       4.21306383
C        1.51843020      -8.38465017       4.65435527
C        0.34267493      -8.53680008       3.87818237
C        0.34629506      -7.49573952       2.98442419
O        1.44854870      -6.72780672       3.16396983
C        2.75023685      -4.31626342       4.15096906
O        1.60911870      -4.27736662       4.60614937
H       -0.56940141      -2.47348993       1.02111437
H        0.82936309      -3.89724041       2.40036616
H        3.92778584      -0.85962692       2.34452241
H        2.51954062       0.52252906       0.92968472
H        5.22331350      -6.07609478       6.39484575
H        4.15478324      -7.39972235       4.99523245
H        1.84526451      -9.02888763       5.45956167
H       -0.40817599      -9.30979427       3.96267675
C       -0.66281449      -7.24719176       1.98766849
C       -1.50794374      -7.03903301       1.15288558
Br      -2.87444625      -6.70245791      -0.19688776
