181
Properties=species:S:1:pos:R:3 pbc="F F F"
C        0.00000000       0.00000000       0.00000000
C        0.88134614       0.88134614      -0.88134614
C        2.19438813       0.50263526      -1.14471438
C        2.99956791       1.31306676      -1.94966216
C        2.50737875       2.51611664      -2.48219707
C        1.17426725       2.86842052      -2.22472743
C        0.36506268       2.05590793      -1.42320274
N        3.35908956       3.32849877      -3.30347567
C        3.49556176       4.69815541      -3.14999421
N        4.11736311       5.48549421      -3.95489872
C        4.73365210       5.01165897      -5.07255501
O        5.14868500       5.74968366      -5.95695342
C        4.94098190       3.54929210      -5.11899726
C        5.96820640       3.12002464      -5.87684196
C        6.39852551       1.77023270      -5.98453131
O        6.33298093       0.84949991      -4.96677169
C        6.82733950      -0.35273429      -5.39839400
N        6.78473975      -1.39007999      -4.50676332
C        6.40359558      -2.72314768      -5.02246856
C        6.65881146      -3.80674745      -3.96230371
O        5.97856389      -3.51937031      -2.73197628
C        6.43022066      -2.26101401      -2.21198257
C        6.15466156      -1.11499153      -3.19479476
C        7.28954271      -0.17788928      -6.68534471
C        7.02210566       1.15538138      -7.05982632
C        3.98783492       2.69786127      -4.37440103
O        3.70440265       1.56951432      -4.77372832
S        2.89531740       5.49338099      -1.70491871
H        2.59996817      -0.41876759      -0.73456792
H        4.02283751       1.00075682      -2.14436263
H        0.73140947       3.75797672      -2.66653882
H       -0.66619471       2.34491721      -1.23615915
H        6.55682543       3.84230400      -6.44081006
H        6.97061529      -2.99746096      -5.91309014
H        5.33761425      -2.71163479      -5.28320310
H        6.29291749      -4.77260231      -4.32499194
H        7.73164066      -3.91201962      -3.76014171
H        5.89694253      -2.08014717      -1.27329536
H        7.49961635      -2.33298839      -1.97988943
H        5.07140165      -1.00787323      -3.33390320
H        6.54594354      -0.18926561      -2.75616482
H        7.25497196       1.62817002      -8.00407285
H        3.31291588       6.71567413      -2.06332697
C        7.97775569      -1.08553599      -7.56633299
C        8.55413407      -1.84569010      -8.30416067
Br       9.48608915      -3.07479502      -9.49716563
C       -0.88134614      -0.88134614      -0.88134614
C       -2.19091113      -0.49704872      -1.15377792
C       -2.99612034      -1.30747883      -1.95869766
C       -2.50756012      -2.51598121      -2.48215114
C       -1.17775294      -2.87401120      -2.21565105
C       -0.36848960      -2.06153994      -1.41414381
N       -3.35922230      -3.32820109      -3.30364061
C       -3.50386295      -4.69626580      -3.14358263
N       -4.12557524      -5.48458283      -3.94759797
C       -4.73333490      -5.01347036      -5.07106082
O       -5.14759547      -5.75400551      -5.95372109
C       -4.93256026      -3.55028765      -5.12642336
C       -5.95340418      -3.11961581      -5.89205301
C       -6.37588975      -1.76814290      -6.00925686
O       -6.31083875      -0.84232279      -4.99609099
C       -6.79642439       0.36019956      -5.43677438
N       -6.75301804       1.40207465      -4.55047969
C       -6.36197470       2.73030045      -5.07124220
C       -6.61702706       3.82092327      -4.01826393
O       -5.94491132       3.53652691      -2.78278545
C       -6.40608706       2.28340990      -2.25851206
C       -6.13144022       1.13067277      -3.23369736
C       -7.25268105       0.18091877      -6.72523586
C       -6.99040953      -1.15575206      -7.09115177
C       -3.97884573      -2.69997347      -4.38127802
O       -3.68723192      -1.57531605      -4.78509733
S       -2.91562112      -5.48691602      -1.69107996
H       -2.59372317       0.42869520      -0.75074053
H       -4.01664436      -0.99075911      -2.16055348
H       -0.73732418      -3.76827844      -2.65032239
H        0.66018796      -2.35504342      -1.22002619
H       -6.54287238      -3.84175900      -6.45530811
H       -6.92274989       3.00285239      -5.96634697
H       -5.29469349       2.71169615      -5.32618521
H       -6.24402188       4.78284965      -4.38413488
H       -7.69033986       3.93300629      -3.82242918
H       -5.87880749       2.10473992      -1.31602315
H       -7.47630502       2.36233843      -2.03255079
H       -5.04804360       1.01702648      -3.36641449
H       -6.53002276       0.20941745      -2.79223744
H       -7.22076526      -1.63235276      -8.03409680
H       -3.33785555      -6.70886834      -2.04519309
C       -7.93129752       1.08748484      -7.61474002
C       -8.49963881       1.84673393      -8.35969975
Br      -9.41859861       3.07437548      -9.56423664
C       -0.88134614       0.88134614       0.88134614
C       -2.19411670       0.50219212       1.14542895
C       -2.99929879       1.31262353       1.95037451
C       -2.50739307       2.51610600       2.48219339
C       -1.17453937       2.86886398       2.22401184
C       -0.36533015       2.05635464       1.42248856
N       -3.35910012       3.32847528       3.30348860
C       -3.49621573       4.69800921       3.14948645
N       -4.11800968       5.48542534       3.95432102
C       -4.73362643       5.01180209       5.07243756
O       -5.14859758       5.75002500       5.95669949
C       -4.94031881       3.54936755       5.11958490
C       -5.96704176       3.11998655       5.87804469
C       -6.39674510       1.77005863       5.98648578
O       -6.33124133       0.84892373       4.96908746
C       -6.82490967      -0.35333667       5.40142620
N       -6.78224821      -1.39104086       4.51021573
C       -6.40032319      -2.72372951       5.02632279
C       -6.65552893      -3.80788472       3.96672351
O       -5.97592242      -3.52074015       2.73598758
C       -6.42833028      -2.26279446       2.21565340
C       -6.15284036      -1.11624063       3.19786507
C       -7.28664322      -0.17814319       6.68849811
C       -7.01961133       1.15539836       7.06230367
C       -3.98712674       2.69802480       4.37494568
O       -3.70304922       1.56996644       4.77462964
S       -2.89691763       5.49287764       1.70382183
H       -2.59948061      -0.41955509       0.73584298
H       -4.02235405       0.99996379       2.14563911
H       -0.73187090       3.75879368       2.66526044
H        0.66572597       2.34572032       1.23488730
H       -6.55572767       3.84225547       6.44195635
H       -6.96685083      -2.99790593       5.91729958
H       -5.33423681      -2.71165634       5.28660209
H       -6.28907384      -4.77343169       4.32966496
H       -7.72839884      -3.91369531       3.76505922
H       -5.89552504      -2.08209901       1.27666469
H       -7.49779339      -2.33531845       1.98404245
H       -5.06956715      -1.00860615       3.33647062
H       -6.54469856      -0.19086541       2.75900960
H       -7.25227858       1.62848748       8.00644876
H       -3.31488104       6.71514564       2.06189030
C       -7.97410063      -1.08570818       7.57016025
C       -8.54984621      -1.84579385       8.30855228
Br      -9.48077811      -3.07478810       9.50246975
C        0.88134614      -0.88134614       0.88134614
C        2.19857316      -0.50962591       1.13353871
C        3.00371679      -1.32005871       1.93852133
C        2.50715414      -2.51628219       2.48225613
C        1.17007163      -2.86142458       2.23591899
C        0.36093979      -2.04886153       1.43437203
N        3.35892224      -3.32886657       3.30327519
C        3.48534523      -4.70037992       3.15798623
N        4.10727032      -5.48650495       3.96398076
C        4.73406818      -5.00941366       5.07438424
O        5.15008611      -5.74433140       5.96090457
C        4.95133308      -3.54817992       5.10975826
C        5.98636814      -3.12075117       5.85795369
C        6.42627705      -1.77316297       5.95384949
O        6.36005150      -0.85874207       4.93045895
C        6.86517345       0.34300457       5.35083034
N        6.82349675       1.37471220       4.45263852
C        6.45457407       2.71364797       4.96199037
C        6.70988687       3.78852167       3.89300252
O        6.01961452       3.49756214       2.66911748
C        6.45951058       2.23283851       2.15451716
C        6.18293104       1.09517006       3.14670383
C        7.33474080       0.17358159       6.63583893
C        7.06101398      -1.15538926       7.02091012
C        3.99889919      -2.69537042       4.36582762
O        3.72556319      -1.56256143       4.75952066
S        2.87030173      -5.50111142       1.72220395
H        2.60748640       0.40634379       0.71462589
H        4.03029106      -1.01326691       2.12439899
H        0.72430215      -3.74509312       2.68652975
H       -0.67341759      -2.33225025       1.25604899
H        6.57394292      -3.84318712       6.42280945
H        7.02928413       2.99005681       5.84701716
H        5.39029294       2.71092442       5.22981403
H        6.35277903       4.75915122       4.25167930
H        7.78202190       3.88534093       3.68308178
H        5.91883756       2.04933149       1.22058465
H        7.52779430       2.29618700       1.91491008
H        5.09993534       0.99615845       3.29365473
H        6.56518647       0.16399890       2.71165518
H        7.29701799      -1.62347985       7.96671699
H        3.28220514      -6.72375942       2.08595241
C        8.03474822       1.08242881       7.50623329
C        8.62100443       1.84358836       8.23518856
Br       9.56893114       3.07431897       9.41384759
