194
Properties=species:S:1:pos:R:3 pbc="F F F"
C        1.79125017       1.79125017      -1.79125017
C        3.10429216       1.41253928      -2.05461841
C        3.90947194       2.22297078      -2.85956618
C        3.41728277       3.42602067      -3.39210110
C        2.08417128       3.77832454      -3.13463145
C        1.27496670       2.96581195      -2.33310677
N        4.26899358       4.23840280      -4.21337969
C        4.40546579       5.60805943      -4.05989823
N        5.02726713       6.39539824      -4.86480274
C        5.64355612       5.92156300      -5.98245904
O        6.05858902       6.65958768      -6.86685744
C        5.85088593       4.45919613      -6.02890128
C        6.87811042       4.02992866      -6.78674598
C        7.30842953       2.68013672      -6.89443533
O        7.24288495       1.75940393      -5.87667572
C        7.73724352       0.55716974      -6.30829802
N        7.69464377      -0.48017596      -5.41666734
C        7.31349961      -1.81324366      -5.93237259
C        7.56871548      -2.89684342      -4.87220774
O        6.88846791      -2.60946629      -3.64188031
C        7.34012468      -1.35110998      -3.12188660
C        7.06456559      -0.20508750      -4.10469879
C        8.19944673       0.73201474      -7.59524874
Br       9.09597814      -0.45037181      -8.74290749
C        7.93200969       2.06528541      -7.96973034
C        4.89773895       3.60776529      -5.28430506
O        4.61430667       2.47941834      -5.68363235
S        3.80522143       6.40328501      -2.61482274
H        3.50987219       0.49113644      -1.64447194
H        4.93274153       1.91066084      -3.05426666
H        1.64131350       4.66788075      -3.57644285
H        0.24370932       3.25482123      -2.14606318
H        7.46672945       4.75220802      -7.35071409
H        7.88051931      -2.08755693      -6.82299416
H        6.24751827      -1.80173077      -6.19310712
H        7.20282151      -3.86269829      -5.23489596
H        8.64154469      -3.00211559      -4.67004573
H        6.80684655      -1.17024315      -2.18319938
H        8.40952038      -1.42308437      -2.88979345
H        5.98130567      -0.09796920      -4.24380722
H        7.45584756       0.72063841      -3.66606885
H        8.16487598       2.53807404      -8.91397687
H        4.22281990       7.62557816      -2.97323099
C       -1.79125017      -1.79125017      -1.79125017
C       -3.13711069      -1.47785010      -1.95648906
C       -3.94197871      -2.28827679      -2.76175341
C       -3.41527318      -3.42741873      -3.39271264
C       -2.05126392      -3.71296092      -3.23290243
C       -1.24270870      -2.90002415      -2.43115257
N       -4.26738435      -4.24166110      -4.21173062
C       -4.31649341      -5.62354078      -4.13338926
N       -4.93991728      -6.39993018      -4.94762065
C       -5.64816878      -5.90139401      -5.99801536
O       -6.07310779      -6.61169779      -6.90022857
C       -5.94050673      -4.45386295      -5.94461365
C       -7.03412603      -4.04485403      -6.61580501
C       -7.54598933      -2.71944742      -6.61756484
O       -7.47168494      -1.85563682      -5.55164285
C       -8.05847841      -0.66276468      -5.88146820
N       -8.02123679       0.32303253      -4.93293088
C       -7.74799760       1.70370020      -5.38833113
C       -8.00004208       2.70812945      -4.25216716
O       -7.23184952       2.39286999      -3.08190240
C       -7.57933880       1.08217518      -2.61373768
C       -7.29882995       0.01237360      -3.67772052
C       -8.58656642      -0.79182465      -7.14831913
Br      -9.61608465       0.39768976      -8.17011893
C       -8.26695643      -2.08321817      -7.61685083
C       -4.99413143      -3.59025803      -5.20541983
O       -4.79966343      -2.42608518      -5.55160874
S       -3.58632003      -6.46189908      -2.77511006
H       -3.56889121      -0.60724387      -1.46934550
H       -4.99116408      -2.02752112      -2.87898382
H       -1.58604301      -4.54779247      -3.75180162
H       -0.18734454      -3.13664440      -2.32060479
H       -7.61368352      -4.76807395      -7.18789409
H       -8.38218329       1.99348521      -6.22725846
H       -6.70068772       1.77110653      -5.70931343
H       -7.71197722       3.71324669      -4.57628865
H       -9.06301494       2.73707130      -3.98353118
H       -6.98118817       0.88076250      -1.71937712
H       -8.63520203       1.07644233      -2.31746977
H       -6.22156614      -0.02135641      -3.88422114
H       -7.60990534      -0.95858485      -3.27406464
H       -8.52899108      -2.51484640      -8.57308941
H       -3.95472851      -7.68479558      -3.18210496
C       -1.79125017       1.79125017       1.79125017
C       -1.20487719       2.71133751       2.65523515
C       -2.01439370       3.51478587       3.46282933
C       -3.41341904       3.39343698       3.42854852
C       -3.98596719       2.47708914       2.53407094
C       -3.17739720       1.67534505       1.72114317
N       -4.21827919       4.23091410       4.27158278
C       -5.26786607       3.76172498       5.04383241
N       -6.11144588       4.48995001       5.68607222
C       -6.03004361       5.84883172       5.66870282
O       -6.92789285       6.56629730       6.09084399
C       -4.75373653       6.40823859       5.17700821
C       -4.42911459       7.63348162       5.63218885
C       -3.21017014       8.31140070       5.36143075
O       -1.99608286       7.69074754       5.19213421
C       -1.02791974       8.62803393       4.94675762
N        0.23511554       8.15836650       4.70788418
C        1.02039046       8.81379919       3.63921980
C        2.48490059       8.34822632       3.68075406
O        2.59279758       6.92000977       3.59366973
C        1.89322147       6.31429842       4.68982434
C        0.40454803       6.68713058       4.68159433
C       -1.61567350       9.87157578       5.03946093
Br      -0.86666384      11.58817722       4.93367276
C       -2.98847765       9.67894712       5.29960067
C       -3.97977687       5.60168869       4.20834373
O       -3.28703105       6.14253536       3.34779095
S       -5.47001924       2.03922207       5.31408787
H       -0.12399251       2.81513339       2.70635468
H       -1.53819163       4.22792581       4.13155158
H       -5.06497131       2.39271968       2.42794610
H       -3.63965464       0.97192155       1.03301753
H       -5.11973047       8.16218451       6.28773658
H        1.02013552       9.90037860       3.73571346
H        0.58253142       8.55458378       2.66684226
H        3.03252214       8.77374651       2.83379481
H        2.97786460       8.68743434       4.59990509
H        2.00382711       5.22947300       4.59415690
H        2.37040196       6.61693105       5.62970038
H       -0.06485243       6.28940965       3.77288161
H       -0.06778979       6.22047573       5.55428929
H       -3.74206159      10.44315651       5.43170879
H       -6.54154931       2.17153472       6.10854502
C        1.79125017      -1.79125017       1.79125017
C        1.31233999      -2.24096818       3.01814168
C        2.12268226      -3.04537909       3.82394756
C        3.42302868      -3.39150357       3.42087230
C        3.87858539      -2.94802566       2.17051622
C        3.06699297      -2.14674929       1.36014316
N        4.23238992      -4.21718621       4.27119995
C        5.55408867      -3.94044995       4.57888484
N        6.36045125      -4.72616146       5.20085541
C        5.95711232      -5.94985151       5.64061433
O        6.74511105      -6.79546423       6.04445887
C        4.49620743      -6.16977782       5.67299809
C        4.05341765      -7.08049314       6.56087428
C        2.68785617      -7.37494078       6.82020464
O        1.66812387      -6.45640963       6.75443110
C        0.47892821      -7.06310912       7.06067396
N       -0.64391973      -6.28381626       6.99123862
C       -1.86278611      -6.88663842       6.40877623
C       -3.08126495      -5.97972691       6.64561783
O       -2.86850951      -4.65653378       6.13285766
C       -1.73120066      -4.06523732       6.77686463
C       -0.45782388      -4.88697164       6.53502911
C        0.75178062      -8.36975092       7.40517867
Br      -0.37701462      -9.72802866       8.03749979
C        2.13957578      -8.57210062       7.25534904
C        3.66747976      -5.41224291       4.71008662
O        2.62750655      -5.89024486       4.25960595
S        6.23578870      -2.36206172       4.22547875
H        0.31321635      -1.97690050       3.35536372
H        1.73128127      -3.38719484       4.77919292
H        4.85370384      -3.24237801       1.78955524
H        3.43707001      -1.81397729       0.39354643
H        4.77127610      -7.63102129       7.16735417
H       -2.08995588      -7.85984982       6.84606260
H       -1.71197782      -7.02083583       5.33003661
H       -3.95641246      -6.39537374       6.13605791
H       -3.31870103      -5.91382281       7.71435305
H       -1.60534202      -3.05800476       6.36714005
H       -1.93881570      -3.96594385       7.84910131
H       -0.22472277      -4.88918827       5.46267819
H        0.36635572      -4.40332355       7.07287555
H        2.69108290      -9.48321086       7.44263313
H        7.44169750      -2.63849154       4.74144001
C       -0.00445707       0.01189536      -1.78238275
H       -0.66409135       0.67374010      -2.43557963
H        0.65740317      -0.63156657      -2.45157240
C       -0.90989263      -0.90692880      -0.91072765
C        0.90977584       0.90977584      -0.90977584
C       -0.00465871       1.77757030       0.00794375
H       -0.66225468       2.44313916      -0.64384735
H        0.64322798       2.43503045       0.67728295
C       -1.78241447       0.00034974      -0.00472694
H       -2.45427497      -0.65498947       0.64260836
H       -2.43311707       0.67328779      -0.65473579
C       -0.91132561       0.90220522       0.91563759
C       -0.01476271      -0.02253852       1.78660255
H       -0.67934791      -0.69751639       2.42135241
H        0.63392994       0.61504881       2.47327442
C        0.01484550      -1.77751727      -0.01636693
H        0.67870853      -2.42144646      -0.68295456
H       -0.62264859      -2.45592969       0.64226336
C        1.78714474       0.01002794       0.00389507
H        2.44202412       0.67113390       0.66197326
H        2.45385902      -0.65136977      -0.64189061
C        0.91606151      -0.90478549       0.90901405
