169
Properties=species:S:1:pos:R:3 pbc="F F F"
C        0.00000000       0.00000000       0.00000000
C        9.09047655       2.08609563       5.32348715
C        8.27837507       2.14771349       4.06323730
C        8.67895854       2.95865132       2.99325077
C        7.90009272       3.03756486       1.83745723
C        6.70625919       2.32159837       1.76067423
C        6.29970358       1.49931576       2.80836867
C        7.08029706       1.42591238       3.96407932
O        5.99318144       2.41788225       0.55354631
C        4.62931025       2.65609798       0.61419439
O        3.92599758       2.74502813       1.60550109
C        4.12436732       2.80935416      -0.77187999
C        4.86498289       3.61074701      -1.64790607
C        4.38288503       3.82829834      -2.92682352
N        3.22364138       3.26521973      -3.34236770
C        2.50492731       2.50201710      -2.50438079
C        1.31326930       1.96779378      -2.97696112
C        0.49486352       1.16295127      -2.18174529
C        0.88094604       0.88094604      -0.88094604
C        2.07165334       1.40150089      -0.37845353
C        2.90196650       2.22848448      -1.18136982
C        5.07337341       4.68290247      -3.91708476
C        4.95283195       4.42576080      -5.29684175
C        5.59499807       5.22314724      -6.25092732
C        6.37018710       6.30101423      -5.83814952
Br       7.23792577       7.38432162      -7.12003917
C        6.50413858       6.58935985      -4.48407742
C        5.85850927       5.78819455      -3.53470826
H       10.11853787       2.42097069       5.15019625
H        9.14094595       1.05850889       5.69834801
H        8.64102300       2.72508947       6.08989566
H        9.60137677       3.53181748       3.05336864
H        8.22381400       3.65871938       1.00799495
H        5.38087861       0.92421289       2.74587178
H        6.74755913       0.80083485       4.79006637
H        5.79921692       4.05841130      -1.32550542
H        1.00783614       2.18882521      -3.99811877
H       -0.43228332       0.76955717      -2.59009336
H        2.35089483       1.16559063       0.64649400
H        4.34604299       3.58819504      -5.64005862
H        5.47734075       4.99325123      -7.30651126
H        7.09895117       7.43718677      -4.15399512
H        5.96363934       6.06060843      -2.48683394
C        5.97046090      -3.70003703      -8.12350890
C        4.68753338      -3.70508315      -7.34530150
C        3.54262407      -4.32911854      -7.85786462
C        2.34344240      -4.29979598      -7.14384676
C        2.28326721      -3.62525935      -5.92519118
C        3.41469640      -3.01186153      -5.39348554
C        4.61145178      -3.04084841      -6.11273350
O        1.05523835      -3.66940372      -5.24335200
C        0.54628030      -2.48667942      -4.73081472
O        1.05871300      -1.38100998      -4.74322763
C       -0.78711847      -2.77134023      -4.14714277
C       -1.66657160      -3.56418398      -4.89288041
C       -2.94217512      -3.79000224      -4.40582953
N       -3.33919436      -3.27313595      -3.21889850
C       -2.50296102      -2.50555886      -2.50280532
C       -2.97042315      -1.98410342      -1.30349763
C       -2.17745860      -1.17364487      -0.48845661
C       -0.88094604      -0.88094604      -0.88094604
C       -0.38298713      -1.39019137      -2.07842926
C       -1.18994089      -2.20710308      -2.91477682
C       -3.95562171      -4.58676813      -5.13097079
C       -4.94601899      -5.30092363      -4.42849188
C       -5.91602808      -6.05858724      -5.09445732
C       -5.91417447      -6.11136233      -6.48381405
Br      -7.22220532      -7.12945783      -7.39062341
C       -4.95625373      -5.41146832      -7.20985380
C       -3.98906464      -4.65475666      -6.53759079
H        5.98210499      -4.49625109      -8.87516620
H        6.82412511      -3.86687362      -7.45835832
H        6.09560057      -2.73932095      -8.63249643
H        3.57920529      -4.84357012      -8.81546077
H        1.46401932      -4.79631826      -7.54223950
H        3.37839684      -2.50211055      -4.43550600
H        5.48735421      -2.54028984      -5.70539199
H       -1.35323046      -3.98924840      -5.84065479
H       -3.98877401      -2.21213665      -0.99386945
H       -2.58496182      -0.78235832       0.43995292
H        0.63792293      -1.14420922      -2.36370517
H       -4.96657044      -5.26827934      -3.33944687
H       -6.66427302      -6.59537943      -4.51745080
H       -4.95525817      -5.43835511      -8.29651977
H       -3.27328991      -4.09871456      -7.13907724
C        5.97498143       3.71447725       8.11358921
C        4.69125302       3.71741146       7.33669283
C        3.54623008       4.34079906       7.84979011
C        2.34634840       4.30951621       7.13703254
C        2.28561668       3.63366917       5.91913083
C        3.41712900       3.02088570       5.38689396
C        4.61459009       3.05183575       6.10488446
O        1.05684548       3.67585663       5.23850623
C        0.54857564       2.49208678       4.72770271
O        1.06215414       1.38695607       4.74072268
C       -0.78571140       2.77478314       4.14510692
C       -1.66521269       3.56748988       4.89093341
C       -2.94154525       3.79150202       4.40495962
N       -3.33924985       3.27301268       3.21896628
C       -2.50296384       2.50555870       2.50280266
C       -2.97111921       1.98239537       1.30450961
C       -2.17815934       1.17191422       0.48948653
C       -0.88094604       0.88094604       0.88094604
C       -0.38228327       1.39192863       2.07739586
C       -1.18921713       2.20887046       2.91373320
C       -3.95506498       4.58797254       5.13032311
C       -4.94691294       5.30039265       4.42812892
C       -5.91701573       6.05774474       5.09431216
C       -5.91379319       6.11194617       6.48361149
Br      -7.22193773       7.12963060       7.39071823
C       -4.95441224       5.41377843       7.20938518
C       -3.98713687       4.65736893       6.53690628
H        5.98657903       4.51147307       8.86441827
H        6.82779241       3.88150605       7.44739320
H        6.10162730       2.75441221       8.62343191
H        3.58326460       4.85626938       8.80682083
H        1.46682522       4.80554570       7.53581797
H        3.38037092       2.51011588       4.42947476
H        5.49058760       2.55175720       5.69715802
H       -1.35133694       3.99384653       5.83795016
H       -3.99001994       2.20906788       0.99569230
H       -2.58621187       0.77925880      -0.43810345
H        0.63917011       1.14728488       2.36187669
H       -4.96854634       5.26661075       3.33913955
H       -6.66640124       6.59317839       4.51752361
H       -4.95233124       5.44178036       8.29602146
H       -3.27017672       4.10267723       7.13822775
C        8.64489237      -2.88760050      -5.67940784
C        7.90406698      -2.83439677      -4.37561249
C        8.32074229      -3.60784763      -3.28423084
C        7.60613863      -3.57943789      -2.08537617
C        6.45913519      -2.79325059      -1.98520246
C        6.03839514      -2.00694260      -3.05468707
C        6.75442775      -2.04093975      -4.25323737
O        5.81211211      -2.78314339      -0.73773813
C        4.43611844      -2.94588466      -0.71078926
O        3.67347346      -3.04793540      -1.65588425
C        4.00373810      -2.99479801       0.70706536
C        4.74881149      -3.78867680       1.58614769
C        4.32959751      -3.90878944       2.89961995
N        3.22818345      -3.25866784       3.34437752
C        2.50505349      -2.50205570       2.50421602
C        1.37302724      -1.87576014       3.00923682
C        0.55521423      -1.06962101       2.21472485
C        0.88094604      -0.88094604       0.88094604
C        2.01105292      -1.49517936       0.34537548
C        2.83997905      -2.32365538       1.14818636
C        5.02835517      -4.74666710       3.89833836
C        5.00102328      -4.40878675       5.26562447
C        5.65263471      -5.18881724       6.22762069
C        6.34349567      -6.33001096       5.83584422
Br       7.22326276      -7.39024459       7.12877922
C        6.38397711      -6.69837599       4.49522275
C        5.72938746      -5.91412513       3.53789950
H        9.66155905      -3.27086842      -5.54311516
H        8.72935247      -1.88636958      -6.11461521
H        8.11842591      -3.54036220      -6.38257130
H        9.20585139      -4.23525088      -3.36127666
H        7.94269878      -4.17230971      -1.24047005
H        5.15710900      -1.37768551      -2.97557479
H        6.40928997      -1.44345332      -5.09441568
H        5.63748602      -4.30583251       1.23981510
H        1.11499698      -2.02339183       4.05639130
H       -0.32441465      -0.60232286       2.64945901
H        2.24356094      -1.33142183      -0.70499131
H        4.46106090      -3.52054421       5.59269154
H        5.60816079      -4.89579997       7.27314248
H        6.91219652      -7.59545222       4.18248432
H        5.75951389      -6.24839463       2.50317319
