198
Properties=species:S:1:pos:R:3 pbc="F F F"
C       10.00038057       2.99599965       4.41358312
C        9.18827910       3.05761752       3.15333328
C        9.58886256       3.86855534       2.08334674
C        8.80999674       3.94746888       0.92755321
C        7.61616321       3.23150239       0.85077021
C        7.20960761       2.40921978       1.89846465
C        7.99020108       2.33581641       3.05417529
O        6.90308547       3.32778628      -0.35635771
C        5.53921428       3.56600200      -0.29570964
O        4.83590160       3.65493215       0.69559707
C        5.03427135       3.71925818      -1.68178401
C        5.77488692       4.52065104      -2.55781010
C        5.29278905       4.73820237      -3.83672755
N        4.13354540       4.17512375      -4.25227173
C        3.41483134       3.41192113      -3.41428482
C        2.22317332       2.87769780      -3.88686515
C        1.40476754       2.07285530      -3.09164932
C        1.79085007       1.79085007      -1.79085007
C        2.98155736       2.31140492      -1.28835755
C        3.81187052       3.13838850      -2.09127384
C        5.98327744       5.59280649      -4.82698878
C        5.86273598       5.33566482      -6.20674578
C        6.50490210       6.13305126      -7.16083135
C        7.28009112       7.21091825      -6.74805355
C        7.41404261       7.49926387      -5.39398144
C        6.76841329       6.69809858      -4.44461229
H       11.02844189       3.33087471       4.24029223
H       10.05084997       1.96841292       4.78844398
H        9.55092703       3.63499349       5.17999163
H       10.51128079       4.44172151       2.14346462
H        9.13371803       4.56862341       0.09809093
H        6.29078263       1.83411692       1.83596776
H        7.65746316       1.71073888       3.88016234
H        6.70912094       4.96831532      -2.23540945
H        1.91774016       3.09872923      -4.90802279
H        0.47762071       1.67946120      -3.49999739
H        3.26079885       2.07549466      -0.26341002
H        5.25594702       4.49809906      -6.54996264
H        6.38724477       5.90315526      -8.21641528
H        8.00885520       8.34709080      -5.06389914
H        6.87354336       6.97051245      -3.39673797
C        7.94144141       8.03656505      -7.72505056
C        8.49532228       8.72804425      -8.54328555
Br       9.39090080       9.84610763      -9.86630233
C        2.49606651      -0.02298440     -11.05587922
C        1.62303704      -0.68496842     -10.03063196
C        0.57094624      -1.52365271     -10.42136469
C       -0.25858243      -2.10842388      -9.46290611
C       -0.04956973      -1.83556957      -8.11175610
C        0.99997286      -1.01615242      -7.70418317
C        1.82536708      -0.43060967      -8.66659960
O       -0.89772853      -2.48841744      -7.20108349
C       -1.47412803      -1.73892222      -6.18787567
O       -1.30093352      -0.55940961      -5.93489355
C       -2.39053052      -2.62038157      -5.42440146
C       -3.24433944      -3.45622103      -6.15278758
C       -4.15839961      -4.23946565      -5.46985371
N       -4.22299593      -4.22051444      -4.11743051
C       -3.41214523      -3.41523846      -3.41365360
C       -3.53676946      -3.42050396      -2.03046285
C       -2.74038782      -2.61746897      -1.21141535
C       -1.79085007      -1.79085007      -1.79085007
C       -1.64130069      -1.76418394      -3.17583521
C       -2.45621329      -2.57256783      -4.01275175
C       -5.12420939      -5.13198054      -6.14688277
C       -5.58023327      -6.30704167      -5.51787164
C       -6.49587265      -7.16403704      -6.13887502
C       -6.97724189      -6.85557299      -7.40624804
C       -6.55516521      -5.69890551      -8.05321720
C       -5.63956500      -4.84538313      -7.42617602
H        2.44146301      -0.54187843     -12.01860896
H        3.54326534      -0.03782464     -10.73625961
H        2.18095547       1.01486466     -11.20174902
H        0.39310859      -1.72788053     -11.47476575
H       -1.06398933      -2.76687509      -9.77338609
H        1.17940230      -0.81614445      -6.65218964
H        2.62977761       0.22792120      -8.34573849
H       -3.19291078      -3.48375657      -7.23617836
H       -4.28258427      -4.06844091      -1.57346700
H       -2.87468569      -2.64897625      -0.13341735
H       -0.88907288      -1.10543514      -3.60519550
H       -5.21783841      -6.56349220      -4.52267811
H       -6.82456133      -8.06115640      -5.62109759
H       -6.93574860      -5.44488022      -9.03921631
H       -5.35371394      -3.93631740      -7.95076244
C       -7.92137416      -7.73217496      -8.04950790
C       -8.71208493      -8.46632911      -8.58823804
Br      -9.99059738      -9.65339427      -9.45931911
C       -6.03711782       7.93528320      -5.38960392
C       -5.83198451       7.30432140      -4.04374257
C       -6.39292272       7.87466924      -2.89352081
C       -6.16896125       7.30147330      -1.64052213
C       -5.36339373       6.16848412      -1.53498245
C       -4.80957960       5.57962269      -2.66883955
C       -5.03353968       6.15828896      -3.91998644
O       -5.21278147       5.62306332      -0.24861533
C       -3.93726980       5.28710170       0.17655442
O       -2.89499543       5.35194315      -0.45170189
C       -4.02493869       4.82669638       1.58367847
C       -4.80418696       5.58234942       2.46681168
C       -4.84979996       5.21700775       3.80091126
N       -4.17068145       4.13656198       4.25369745
C       -3.41541805       3.41245672       3.41316251
C       -2.72351967       2.32786930       3.93634730
C       -1.91085085       1.51477805       3.14364325
C       -1.79085007       1.79085007       1.79085007
C       -2.47345664       2.87151475       1.23634844
C       -3.29345456       3.70657158       2.04150672
C       -5.61757437       5.96645860       4.81903974
C       -6.15078967       5.30921846       5.94513845
C       -6.87770542       5.99923830       6.92184098
C       -7.08103081       7.36829230       6.78973981
C       -6.56130422       8.05097215       5.69501155
C       -5.83436998       7.35493560       4.72181857
H       -6.90757067       8.59965583      -5.38820212
H       -6.21346385       7.16821173      -6.15085668
H       -5.15427400       8.51924657      -5.66759168
H       -7.00945569       8.76763888      -2.96755689
H       -6.61734174       7.74251828      -0.75560951
H       -4.19768263       4.68578306      -2.59453391
H       -4.57984950       5.70916898      -4.80097879
H       -5.35831802       6.44428627       2.11024142
H       -2.81578043       2.10987898       4.99883279
H       -1.38302099       0.67892097       3.59513733
H       -2.36104486       3.06689354       0.17176513
H       -5.99817350       4.23730861       6.06852662
H       -7.27279877       5.45717660       7.77683995
H       -6.70605206       9.12321662       5.59057645
H       -5.41971468       7.92662589       3.89445322
C       -7.82613105       8.08433842       7.79258755
C       -8.45015250       8.68402705       8.63247253
Br      -9.45914241       9.65367285       9.99049550
C       -2.61812943      -0.17467474      11.02625179
C       -1.72641153      -0.81539323      10.00358163
C       -0.66937863      -1.64668603      10.39676376
C        0.17723703      -2.21143290       9.44124248
C       -0.01982321      -1.92577589       8.09094271
C       -1.07390532      -1.11353069       7.68073737
C       -1.91643959      -0.54801086       8.64027093
O        0.84565378      -2.55892034       7.18265533
C        1.42481339      -1.79176046       6.18435207
O        1.24121664      -0.61147814       5.94254191
C        2.35945706      -2.65438202       5.42147446
C        3.21445562      -3.48881693       6.15007551
C        4.14476229      -4.25416533       5.46879135
N        4.22413902      -4.21933068       4.11747117
C        3.41216319      -3.41525499       3.41361910
C        3.55217326      -3.40362311       2.03193989
C        2.75596841      -2.60033473       1.21296901
C        1.79085007      -1.79085007       1.79085007
C        1.62565801      -1.78138057       3.17428125
C        2.44025331      -2.59001208       4.01126747
C        5.11295311      -5.14345027       6.14666933
C        5.58907714      -6.30625176       5.50981767
C        6.50732683      -7.15994968       6.13150819
C        6.97111869      -6.86040003       7.40754420
C        6.52894475      -5.71581478       8.06252839
C        5.61084015      -4.86552126       7.43476275
H       -2.56839116      -0.70369690      11.98371865
H       -3.66148630      -0.19754364      10.69476156
H       -2.31631649       0.86490424      11.18714962
H       -0.50095668      -1.86073122      11.44976315
H        0.98648532      -2.86435112       9.75341407
H       -1.24388714      -0.90373826       6.62908067
H       -2.72457739       0.10511448       8.31773156
H        3.15132528      -3.52907121       7.23244922
H        4.31023176      -4.03808107       1.57617936
H        2.90256007      -2.61825722       0.13626200
H        0.86137258      -1.13587329       3.60245767
H        5.24064246      -6.55552758       4.50783868
H        6.85178021      -8.04750403       5.60753107
H        6.89569489      -5.46865902       9.05549123
H        5.30900954      -3.96562325       7.96616099
C        7.91783078      -7.73363570       8.05159055
C        8.71070215      -8.46497057       8.59097936
Br       9.99270809      -9.64747721       9.46312545
C       -0.00445707       0.01189536      -1.78238275
H       -0.66409135       0.67374010      -2.43557963
H        0.65740317      -0.63156657      -2.45157240
C       -0.90989263      -0.90692880      -0.91072765
C        0.90977584       0.90977584      -0.90977584
C       -0.00465871       1.77757030       0.00794375
H       -0.66225468       2.44313916      -0.64384735
H        0.64322798       2.43503045       0.67728295
C       -1.78241447       0.00034974      -0.00472694
H       -2.45427497      -0.65498947       0.64260836
H       -2.43311707       0.67328779      -0.65473579
C       -0.91132561       0.90220522       0.91563759
C       -0.01476271      -0.02253852       1.78660255
H       -0.67934791      -0.69751639       2.42135241
H        0.63392994       0.61504881       2.47327442
C        0.01484550      -1.77751727      -0.01636693
H        0.67870853      -2.42144646      -0.68295456
H       -0.62264859      -2.45592969       0.64226336
C        1.78714474       0.01002794       0.00389507
H        2.44202412       0.67113390       0.66197326
H        2.45385902      -0.65136977      -0.64189061
C        0.91606151      -0.90478549       0.90901405
