177
Properties=species:S:1:pos:R:3 pbc="F F F"
C        0.00000000       0.00000000       0.00000000
C        9.09047655       2.08609563       5.32348715
C        8.27837507       2.14771349       4.06323730
C        8.67895854       2.95865132       2.99325077
C        7.90009272       3.03756486       1.83745723
C        6.70625919       2.32159837       1.76067423
C        6.29970358       1.49931576       2.80836867
C        7.08029706       1.42591238       3.96407932
O        5.99318144       2.41788225       0.55354631
C        4.62931025       2.65609798       0.61419439
O        3.92599758       2.74502813       1.60550109
C        4.12436732       2.80935416      -0.77187999
C        4.86498289       3.61074701      -1.64790607
C        4.38288503       3.82829834      -2.92682352
N        3.22364138       3.26521973      -3.34236770
C        2.50492731       2.50201710      -2.50438079
C        1.31326930       1.96779378      -2.97696112
C        0.49486352       1.16295127      -2.18174529
C        0.88094604       0.88094604      -0.88094604
C        2.07165334       1.40150089      -0.37845353
C        2.90196650       2.22848448      -1.18136982
C        5.07337341       4.68290247      -3.91708476
C        4.95283195       4.42576080      -5.29684175
C        5.59499807       5.22314724      -6.25092732
C        6.37018710       6.30101423      -5.83814952
C        6.50413858       6.58935985      -4.48407742
C        5.85850927       5.78819455      -3.53470826
H       10.11853787       2.42097069       5.15019625
H        9.14094595       1.05850889       5.69834801
H        8.64102300       2.72508947       6.08989566
H        9.60137677       3.53181748       3.05336864
H        8.22381400       3.65871938       1.00799495
H        5.38087861       0.92421289       2.74587178
H        6.74755913       0.80083485       4.79006637
H        5.79921692       4.05841130      -1.32550542
H        1.00783614       2.18882521      -3.99811877
H       -0.43228332       0.76955717      -2.59009336
H        2.35089483       1.16559063       0.64649400
H        4.34604299       3.58819504      -5.64005862
H        5.47734075       4.99325123      -7.30651126
H        7.09895117       7.43718677      -4.15399512
H        5.96363934       6.06060843      -2.48683394
C        7.03153739       7.12666103      -6.81514653
C        7.58541825       7.81814023      -7.63338153
Br       8.48099677       8.93620360      -8.95639831
C       -7.30715144       6.24411837      -4.79005196
C       -6.63804939       4.91004591      -4.63484778
C       -7.19379853       3.75995599      -5.21051654
C       -6.58424750       2.51675468      -5.03270752
C       -5.42890206       2.42010243      -4.25838370
C       -4.85442662       3.55448451      -3.69070855
C       -5.46939865       4.79569626      -3.86842774
O       -4.84814491       1.14466477      -4.15403724
C       -4.46947714       0.69670730      -2.89844400
O       -4.52336941       1.29711135      -1.83926655
C       -3.97674223      -0.69566939      -3.03318984
C       -4.72983756      -1.57813808      -3.81566034
C       -4.33284692      -2.90099164      -3.90416833
N       -3.22462365      -3.34287480      -3.26373036
C       -2.50261042      -2.50318471      -2.50553008
C       -1.38818027      -3.01563348      -1.85421046
C       -0.57459487      -2.22290614      -1.04205906
C       -0.88094604      -0.88094604      -0.88094604
C       -1.99199550      -0.33733063      -1.52228163
C       -2.82741034      -1.14288063      -2.34152982
C       -5.07610963      -3.91849731      -4.67875369
C       -4.40493662      -5.01399397      -5.25650391
C       -5.08879407      -5.98960244      -5.99067612
C       -6.46542094      -5.88731344      -6.15661647
C       -7.16158332      -4.82347944      -5.59251308
C       -6.47162558      -3.85122600      -4.85856051
H       -7.99317456       6.24740271      -5.64354046
H       -6.56389189       7.02873719      -4.96595213
H       -7.87521347       6.48524038      -3.88624372
H       -8.10369520       3.82653805      -5.80266847
H       -7.01448699       1.63230299      -5.49235444
H       -3.94377157       3.48776994      -3.10321810
H       -5.03085733       5.67630370      -3.40377398
H       -5.61413296      -1.22995690      -4.33904377
H       -1.14635891      -4.06963034      -1.97879087
H        0.28531996      -2.66596234      -0.54672484
H       -2.21075981       0.71883790      -1.37806955
H       -3.32677035      -5.11386504      -5.13366127
H       -4.53593312      -6.82051504      -6.42065507
H       -8.23941486      -4.74275287      -5.70796532
H       -7.05291543      -3.04916640      -4.40899988
C       -7.17510259      -6.88926124      -6.90898112
C       -7.76946097      -7.72839251      -7.53908652
Br      -8.73048821      -9.08519682      -8.55791365
C        5.06394507       9.33754596       1.57948414
C        3.83640915       8.48515622       1.71410419
C        2.78141176       8.87730621       2.54846463
C        1.65761195       8.06233439       2.69547791
C        1.59889077       6.84173155       2.02434254
C        2.63144555       6.44244190       1.17965432
C        3.75529099       7.25933336       1.03808775
O        0.42206771       6.09131581       2.18826927
C        0.53961727       4.73973808       2.47109303
O        1.55791033       4.07468547       2.54874948
C       -0.82140527       4.19306083       2.69113538
C       -1.69516652       4.93117571       3.49729375
C       -2.94776218       4.41331192       3.77693279
N       -3.34078608       3.22103018       3.26941254
C       -2.50448190       2.50484214       2.50200116
C       -2.95231691       1.27924914       2.02645815
C       -2.15660433       0.46052787       1.22242788
C       -0.88094604       0.88094604       0.88094604
C       -0.40367355       2.10613323       1.34180098
C       -1.20673859       2.93727289       2.16780931
C       -3.93198911       5.09932120       4.64205033
C       -5.31460724       4.92211789       4.43870937
C       -6.26295050       5.55906771       5.24705442
C       -5.84119404       6.38607617       6.28208064
C       -4.48363153       6.57690195       6.51704237
C       -3.54000547       5.93619536       5.70521125
H        4.86567487      10.37032765       1.88465953
H        5.40107436       9.36415662       0.53802457
H        5.86752686       8.93794056       2.20580311
H        2.82826247       9.82114911       3.08693897
H        0.83903948       8.37923390       3.33434402
H        2.58202348       5.50203648       0.63920671
H        4.57057944       6.93316816       0.39573889
H       -1.39111077       5.89138540       3.90063747
H       -3.95366638       0.94685212       2.29426162
H       -2.54488170      -0.49362959       0.87611511
H        0.60188391       2.41196985       1.05990552
H       -5.66461524       4.27429237       3.63538904
H       -7.32095880       5.39690689       5.05923755
H       -4.14595960       7.21267941       7.33149404
H       -2.48778206       6.08709823       5.93620142
C       -6.81213090       7.04240596       7.11880809
C       -7.62529051       7.59208217       7.81956732
Br      -8.94010084       8.48086210       8.95263574
C       -6.27322306      -4.95611460       7.17019349
C       -4.93309295      -4.77634126       6.51960295
C       -3.78284643      -5.34474043       7.08246508
C       -2.53458159      -5.14421378       6.49056815
C       -2.43340269      -4.35452501       5.34606101
C       -3.56761586      -3.79369442       4.76457211
C       -4.81395882      -3.99417401       5.36191494
O       -1.15234914      -4.22741208       4.78245444
C       -0.71537105      -2.96184502       4.42473987
O       -1.32945325      -1.91083565       4.48414221
C        0.68448705      -3.07344798       3.94766644
C        1.56729975      -3.85433228       4.70200395
C        2.89590233      -3.92173948       4.32036508
N        3.34334095      -3.26227866       3.22560919
C        2.50322076      -2.50552262       2.50258183
C        3.02115550      -1.83424222       1.40262648
C        2.22844277      -1.02183559       0.58928173
C        0.88094604      -0.88094604       0.88094604
C        0.33176713      -1.54258312       1.97725751
C        1.13712154      -2.36219890       2.81250035
C        3.91375419      -4.69296713       5.06663931
C        5.02444218      -5.24892851       4.40206381
C        6.00062927      -5.97952608       5.08891728
C        5.88357867      -6.16373131       6.46204086
C        4.80441194      -5.62133689       7.15182702
C        3.83165667      -4.89084240       6.45891301
H       -6.27433024      -5.81800542       7.84563714
H       -7.04645859      -5.13238132       6.41518411
H       -6.53244087      -4.06242245       7.74623524
H       -3.85321363      -5.94887915       7.98416009
H       -1.64983466      -5.59830292       6.92607018
H       -3.49704921      -3.19420545       3.86206348
H       -5.69482256      -3.53492903       4.91822115
H        1.21483788      -4.39283894       5.57545682
H        4.07949143      -1.94292413       1.17236456
H        2.67581440      -0.51051569      -0.25896287
H       -0.72870122      -1.41401367       2.18467901
H        5.13595959      -5.11153826       3.32679880
H        6.84349767      -6.39243787       4.54116771
H        4.71194874      -5.75109965       8.22708467
H        3.01704696      -4.45835102       7.03568373
C        6.88601054      -6.91251618       7.17481823
C        7.72554724      -7.53962350       7.77176927
Br       9.08300706      -8.55360301       8.73698861
