158
Properties=species:S:1:pos:R:3 pbc="F F F"
O        7.85113451       2.72787329      -5.41029163
C        6.94119128       3.46745202      -5.78571994
C        6.85159018       4.90907386      -5.29602262
S        6.80502237       4.96102677      -3.47770961
C        5.29918639       4.16969686      -3.21265282
N        5.08285611       3.46799481      -2.06381185
H        5.74846137       3.36006594      -1.31272082
C        3.82696917       2.92963107      -2.14894921
C        3.06510593       2.12512906      -1.30920881
C        1.79663171       1.79663171      -1.79663171
C        1.37437660       2.27243915      -3.04959801
C        0.01331097       1.94205806      -3.59718115
N        2.13317378       3.05574593      -3.85954016
C        3.35506880       3.36559608      -3.38196679
N        4.27964309       4.13288891      -4.03379002
N        5.94686021       3.12928830      -6.69059962
C        5.74519154       1.87809335      -7.31095767
C        6.43345934       0.71451179      -6.95850812
C        6.17628053      -0.49292019      -7.61801941
C        5.23595255      -0.53709319      -8.64271635
Br       4.90111487      -2.16463528      -9.54240077
C        4.54010350       0.61240412      -9.00544268
C        4.78755477       1.81352375      -8.33225087
H        5.97994537       5.42847922      -5.70616539
H        7.74291446       5.43876558      -5.64728850
H        3.43095291       1.77959922      -0.34969600
H       -0.10187237       0.86052117      -3.71695593
H       -0.12893216       2.40012404      -4.58210961
H       -0.77004769       2.32853831      -2.93796483
H        5.26657477       3.84658409      -6.91655347
H        7.16518452       0.70549851      -6.15680382
H        6.71699119      -1.38713348      -7.31893838
H        3.80619118       0.58690961      -9.80657274
H        4.23312575       2.69948891      -8.63157219
O       -2.51025099      -7.51706131      -5.96198713
C       -3.57876353      -7.11206619      -5.50353352
C       -4.50000744      -6.22363004      -6.33304917
S       -3.61361082      -4.73659666      -6.89355127
C       -3.31924979      -3.99366038      -5.36862590
N       -2.23349747      -3.18777240      -5.19339289
H       -1.54949758      -2.96904782      -5.90270273
C       -2.24343797      -2.77359034      -3.88852113
C       -1.40729268      -1.96315131      -3.12899982
C       -1.79663171      -1.79663171      -1.79663171
C       -2.95703380      -2.42530164      -1.31407832
C       -3.40510945      -2.25924929       0.11180857
N       -3.76183602      -3.21709659      -2.06952725
C       -3.37738390      -3.37316436      -3.35208341
N       -4.03547621      -4.13010431      -4.28074151
N       -4.09072777      -7.42277128      -4.25324908
C       -3.48010356      -8.20444630      -3.24969271
C       -2.15574225      -8.64590022      -3.30483678
C       -1.61764603      -9.41622245      -2.26751128
C       -2.40864863      -9.75797718      -1.17494990
Br      -1.68516633     -10.81096670       0.21725267
C       -3.72951003      -9.32519011      -1.10325016
C       -4.25854711      -8.54092371      -2.13385857
H       -5.39932856      -5.93519602      -5.78006541
H       -4.82374176      -6.79878797      -7.20643881
H       -0.52032025      -1.49782676      -3.54210113
H       -2.64289135      -2.63425398       0.80154060
H       -4.32461232      -2.82536048       0.29667131
H       -3.61677667      -1.20753417       0.32785540
H       -4.99197585      -7.02487201      -4.01286448
H       -1.50345642      -8.39013414      -4.13389629
H       -0.58155096      -9.73912961      -2.32811552
H       -4.35473127      -9.59019513      -0.25474714
H       -5.29250985      -8.21368659      -2.05799041
O       -2.68989586       7.80734031       5.49206326
C       -3.75049366       7.26758467       5.17628491
C       -4.50514178       6.38579029       6.16575459
S       -3.43351337       5.04354908       6.76669630
C       -3.20409058       4.18568410       5.29176139
N       -2.06526591       3.46527980       5.08411704
H       -1.30362550       3.37704852       5.74057410
C       -2.14991467       2.92782838       3.82780639
C       -1.30951106       2.12456471       3.06536804
C       -1.79663171       1.79663171       1.79663171
C       -3.05021748       2.27128249       1.37491379
C       -3.60384228       1.92962053       0.01908737
N       -3.85810511       3.05842541       2.13192934
C       -3.37920193       3.37075858       3.35267117
N       -4.02303730       4.15296618       4.27031855
N       -4.39802994       7.40992725       3.95879095
C       -3.95634528       8.14175661       2.83614068
C       -2.68108093       8.70123585       2.72416247
C       -2.31317765       9.41217122       1.57603088
C       -3.22648750       9.57597789       0.53911031
Br      -2.73328035      10.54921429      -1.00361429
C       -4.50057455       9.02380123       0.63357453
C       -4.85874120       8.29918956       1.77539863
H       -5.41756118       5.96735507       5.72967373
H       -4.80479819       7.01184616       7.01232419
H       -0.34888784       1.78110821       3.43025209
H       -2.94500929       2.30188405      -0.77128861
H       -4.58637047       2.39216827      -0.12523724
H       -3.73119165       0.84744149      -0.08217770
H       -5.27430027       6.91296550       3.84244657
H       -1.93677547       8.58504864       3.50566274
H       -1.31178938       9.82929157       1.50771515
H       -5.22064900       9.14965210      -0.17062755
H       -5.85894002       7.87649067       1.82875617
O        8.28795834      -3.91100541       3.79033568
C        7.42076929      -4.13969089       4.63390306
C        6.78586385      -5.52161145       4.74921136
S        6.06314608      -6.02401052       3.15660216
C        4.82697082      -4.83341217       3.02115308
N        4.39454626      -4.42625962       1.79385689
H        4.74125921      -4.76968502       0.91030391
C        3.44434114      -3.46222220       1.99898611
C        2.66497849      -2.68254408       1.15192124
C        1.79663171      -1.79663171       1.79663171
C        1.75578862      -1.74049866       3.20012648
C        0.82733395      -0.80325516       3.92196106
N        2.52698716      -2.50787628       4.01359642
C        3.36220564      -3.35747142       3.38295461
N        4.22755893      -4.21255561       4.00620748
N        6.95302847      -3.23718405       5.57653561
C        7.32624938      -1.88438043       5.72361275
C        8.11423351      -1.18968003       4.80256570
C        8.44087142       0.15461046       5.01511879
C        7.98885640       0.80592304       6.15864234
Br       8.44363244       2.61638603       6.45163395
C        7.20153980       0.12925767       7.08566818
C        6.86283437      -1.20938365       6.86111137
H        6.02290837      -5.55870584       5.53297577
H        7.57299177      -6.23050473       5.02547204
H        2.72929584      -2.75795471       0.07299759
H        1.04985089       0.23604002       3.66179386
H        0.94275182      -0.90382807       5.00672161
H       -0.21482150      -1.03229272       3.67898422
H        6.24184629      -3.56918305       6.21868299
H        8.47567347      -1.65888521       3.89292818
H        9.04659190       0.67682107       4.27902527
H        6.84691431       0.62993282       7.98269204
H        6.24709733      -1.71912910       7.59796042
C       -0.00445707       0.01189536      -1.78238275
H       -0.66409135       0.67374010      -2.43557963
H        0.65740317      -0.63156657      -2.45157240
C       -0.90989263      -0.90692880      -0.91072765
C        0.90977584       0.90977584      -0.90977584
C       -0.00465871       1.77757030       0.00794375
H       -0.66225468       2.44313916      -0.64384735
H        0.64322798       2.43503045       0.67728295
C       -1.78241447       0.00034974      -0.00472694
H       -2.45427497      -0.65498947       0.64260836
H       -2.43311707       0.67328779      -0.65473579
C       -0.91132561       0.90220522       0.91563759
C       -0.01476271      -0.02253852       1.78660255
H       -0.67934791      -0.69751639       2.42135241
H        0.63392994       0.61504881       2.47327442
C        0.01484550      -1.77751727      -0.01636693
H        0.67870853      -2.42144646      -0.68295456
H       -0.62264859      -2.45592969       0.64226336
C        1.78714474       0.01002794       0.00389507
H        2.44202412       0.67113390       0.66197326
H        2.45385902      -0.65136977      -0.64189061
C        0.91606151      -0.90478549       0.90901405
