178
Properties=species:S:1:pos:R:3 pbc="F F F"
O        6.72819722       2.55729494      -7.37441221
C        5.98759733       3.45357203      -6.97446140
C        6.51453436       4.53783194      -6.04248449
S        6.97729409       3.81993611      -4.43903762
C        5.41390166       3.44225293      -3.82619961
N        5.26046145       2.44026066      -2.91254511
H        6.00578618       1.86812218      -2.54537456
C        3.92514971       2.35642626      -2.62461103
C        3.16972108       1.53311758      -1.79708981
C        1.79691694       1.79691694      -1.79691694
C        1.27499507       2.83477583      -2.58745186
C       -0.19529453       3.15057595      -2.59843521
N        2.02741006       3.62392783      -3.39756011
C        3.34884526       3.35771096      -3.39739079
N        4.28289427       4.01598324      -4.15041255
N        4.65295778       3.61032242      -7.30402452
C        3.87711942       2.83408856      -8.19983729
C        4.39201220       1.74679557      -8.91081786
C        3.57954947       1.00210348      -9.77589511
C        2.23206249       1.32740085      -9.94973253
C        1.37113919       0.53976071     -10.89192903
C        1.71417802       2.43309395      -9.26822949
C        2.52601058       3.17230147      -8.39780365
H        5.79414243       5.35139896      -5.91035796
H        7.40565406       4.97107382      -6.50836639
H        3.61411007       0.74453873      -1.20204952
H       -0.76557462       2.30509967      -2.99518738
H       -0.40028188       4.01795795      -3.23561676
H       -0.54614823       3.39488603      -1.59088714
H        4.12864011       4.31704204      -6.79074573
H        5.42837674       1.43947090      -8.81454152
H        4.01592620       0.15931229     -10.30912481
H        0.35136225       0.45267274     -10.50263609
H        1.75635713      -0.47746558     -11.01970544
H        1.33936650       1.02784252     -11.87079639
H        0.67449183       2.71712118      -9.41531211
C        1.93013867       4.29950876      -7.72852015
C        1.43109595       5.24354487      -7.16799522
Br       0.62418608       6.76997140      -6.26167381
O       -6.34979653      -2.63302370      -7.67708413
C       -5.71403692      -3.54672929      -7.15486456
C       -6.39238714      -4.51197083      -6.19049282
S       -6.91329031      -3.63706551      -4.68591200
C       -5.37412909      -3.32784635      -3.98037877
N       -5.20922229      -2.27051457      -3.13353038
H       -5.93176122      -1.61783629      -2.86968542
C       -3.89624560      -2.26244047      -2.74750092
C       -3.14072845      -1.43381001      -1.92539000
C       -1.79691694      -1.79691694      -1.79691694
C       -1.30231397      -2.92975964      -2.46514916
C        0.13510533      -3.35261037      -2.33621159
N       -2.05340460      -3.72327360      -3.27221981
C       -3.34598174      -3.36151057      -3.39645470
N       -4.27145178      -4.00703730      -4.17080098
N       -4.37544525      -3.82677204      -7.36508744
C       -3.47674923      -3.18316930      -8.25112675
C       -3.85011684      -2.12082908      -9.07867970
C       -2.91977207      -1.50883561      -9.92894038
C       -1.59322292      -1.94502569      -9.97094726
C       -0.60562783      -1.30001534     -10.89718575
C       -1.21617514      -3.02821668      -9.17110964
C       -2.14585128      -3.63437969      -8.31588472
H       -5.75047611      -5.36321574      -5.94220750
H       -7.27842360      -4.91415934      -6.69251134
H       -3.56366691      -0.56999294      -1.42703847
H        0.79827317      -2.58547217      -2.74751343
H        0.31689011      -4.28052170      -2.88966124
H        0.39048745      -3.54132830      -1.28878409
H       -3.94798698      -4.52714871      -6.76129219
H       -4.86309504      -1.73152004      -9.08777408
H       -3.24754325      -0.68122974     -10.55559031
H        0.38647502      -1.25748071     -10.43566539
H       -0.89849164      -0.27058754     -11.12951782
H       -0.54084259      -1.86523292     -11.83192990
H       -0.19431332      -3.39863992      -9.21397189
C       -1.69208247      -4.74565841      -7.52042670
C       -1.31205109      -5.67635434      -6.85423060
Br      -0.69757249      -7.18121094      -5.77704786
O       -6.50505961       7.55876416       2.59608060
C       -6.42532243       6.61282144       3.37748690
C       -5.65793337       6.75019157       4.68672584
S       -3.88774757       6.99156088       4.35695937
C       -3.48203395       5.42227116       3.77804910
N       -2.42297164       5.25682403       2.93347156
H       -1.82764823       5.99727090       2.59436380
C       -2.35209480       3.92423841       2.62985379
C       -1.51333958       3.16556000       1.82102889
C       -1.79691694       1.79691694       1.79691694
C       -2.85773256       1.27982492       2.55966528
C       -3.17897404      -0.18931988       2.56406246
N       -3.67326181       2.03778940       3.33784680
C       -3.39747756       3.35721173       3.34925772
N       -4.10091239       4.30076244       4.04761523
N       -6.99887575       5.36587271       3.20255627
C       -7.83563312       4.92939024       2.14602191
C       -8.21450538       5.75274831       1.08237193
C       -9.03415494       5.26940613       0.05398700
C       -9.49384028       3.95019292       0.06516268
C      -10.38729753       3.44295431      -1.02742292
C       -9.14764186       3.12684620       1.14101340
C       -8.32182490       3.60941455       2.16487625
H       -5.81639573       5.89197272       5.34753090
H       -6.04588351       7.63178238       5.20742838
H       -0.70471844       3.60573232       1.25024757
H       -3.48575407      -0.51717772       1.56613609
H       -4.00409954      -0.40319754       3.25239082
H       -2.31539232      -0.77326202       2.89749465
H       -6.73506712       4.63736641       3.86399434
H       -7.88546390       6.78454388       1.01238137
H       -9.30433917       5.93994084      -0.75991671
H      -10.16506623       2.39474468      -1.25313983
H      -10.23950684       4.01109209      -1.95200194
H      -11.43602312       3.52913501      -0.72715271
H       -9.52152558       2.10606485       1.17933469
C       -8.00485908       2.70970426       3.24360424
C       -7.73940021       1.95619689       4.14703893
Br      -7.31017568       0.73783921       5.60781641
O        5.36128158      -8.25867645       3.03994634
C        5.65536367      -7.18938493       3.57088215
C        5.21417121      -6.88369561       4.99698396
S        3.40429498      -6.75042777       5.08154506
C        3.18047216      -5.27101581       4.23086624
N        2.00133805      -5.02088758       3.59104160
H        1.21102561      -5.64712803       3.56112928
C        2.11687109      -3.79439509       2.99492081
C        1.26993533      -3.02607027       2.20392287
C        1.79691694      -1.79691694       1.79691694
C        3.08917360      -1.41385112       2.19419804
C        3.67816524      -0.09267561       1.78287577
N        3.90677126      -2.18179239       2.96033436
C        3.39360371      -3.36843634       3.34190696
N        4.04967434      -4.30128363       4.09833209
N        6.39851414      -6.17481579       2.99397479
C        7.02403147      -6.16408488       1.72292892
C        6.97012586      -7.24302384       0.83647592
C        7.59515069      -7.17818354      -0.41578616
C        8.28867323      -6.03168217      -0.81115952
C        8.97304810      -5.97421791      -2.14443708
C        8.37659924      -4.95827744       0.08062479
C        7.74476675      -5.02176540       1.32958355
H        5.68896847      -5.97839549       5.38853538
H        5.53922873      -7.71576584       5.63009971
H        0.27861400      -3.35979783       1.92228649
H        3.79272227      -0.04640339       0.69558677
H        4.67000825       0.04437810       2.22766268
H        3.04909160       0.73489065       2.12542399
H        6.44680582      -5.29111328       3.49850878
H        6.44196117      -8.15884892       1.08157907
H        7.52735035      -8.03756778      -1.08055484
H        8.90870050      -4.96685318      -2.56888260
H        8.50062891      -6.65680387      -2.85883579
H       10.02650949      -6.25104217      -2.03954625
H        8.93768248      -4.06981468      -0.20057204
C        7.87587067      -3.88219777       2.20009914
C        7.98567020      -2.92780989       2.92915595
Br       8.16320675      -1.38464540       4.10797915
C       -0.00445707       0.01189536      -1.78238275
H       -0.66409135       0.67374010      -2.43557963
H        0.65740317      -0.63156657      -2.45157240
C       -0.90989263      -0.90692880      -0.91072765
C        0.90977584       0.90977584      -0.90977584
C       -0.00465871       1.77757030       0.00794375
H       -0.66225468       2.44313916      -0.64384735
H        0.64322798       2.43503045       0.67728295
C       -1.78241447       0.00034974      -0.00472694
H       -2.45427497      -0.65498947       0.64260836
H       -2.43311707       0.67328779      -0.65473579
C       -0.91132561       0.90220522       0.91563759
C       -0.01476271      -0.02253852       1.78660255
H       -0.67934791      -0.69751639       2.42135241
H        0.63392994       0.61504881       2.47327442
C        0.01484550      -1.77751727      -0.01636693
H        0.67870853      -2.42144646      -0.68295456
H       -0.62264859      -2.45592969       0.64226336
C        1.78714474       0.01002794       0.00389507
H        2.44202412       0.67113390       0.66197326
H        2.45385902      -0.65136977      -0.64189061
C        0.91606151      -0.90478549       0.90901405
