150
Properties=species:S:1:pos:R:3 pbc="F F F"
C        1.79185930       1.79185930      -1.79185930
C        1.42213486       2.03897652      -3.11219260
C        2.22933742       2.84467444      -3.91872343
C        3.41262552       3.40273328      -3.41092809
C        3.76537468       3.15024193      -2.07613648
C        2.95874807       2.34486442      -1.26914248
C        4.28043267       4.28351072      -4.27825148
S        3.79025336       6.03018192      -4.14149083
C        4.97325090       6.75874521      -5.15914455
N        4.97310867       8.11209056      -5.33513278
H        4.31896931       8.75347622      -4.91180295
C        6.01254174       8.41606166      -6.17237505
C        6.50672296       9.60297823      -6.70147639
C        7.62009745       9.46090844      -7.53504553
C        8.15842507       8.18787145      -7.78592127
C        9.35692194       8.00383208      -8.67557782
N        7.66170195       7.03776277      -7.26109687
C        6.58837525       7.18353615      -6.45753337
N        5.93267478       6.16446052      -5.82330173
H        0.51070454       1.61219479      -3.52216423
H        1.92954613       3.03593004      -4.94725886
H        4.67245438       3.58186216      -1.65763713
H        3.24849588       2.15754646      -0.23874041
H        4.20496121       3.96047098      -5.32328804
H        5.32925698       4.16723673      -3.98085733
H        6.06036534      10.56524296      -6.48093300
H       10.22344008       8.53379851      -8.26788419
H        9.14471920       8.36353714      -9.68721499
H        9.62429070       6.94412466      -8.75183680
C        8.17253183      10.66100368      -8.10792218
C        8.63519563      11.66608344      -8.58770638
Br       9.38328385      13.29121242      -9.36347686
C       -1.79185930      -1.79185930      -1.79185930
C       -1.82752020      -1.57772724      -3.16805655
C       -2.63486554      -2.38371760      -3.97415216
C       -3.41445586      -3.40399990      -3.40783114
C       -3.35984574      -3.61114540      -2.02076194
C       -2.55279724      -2.80574833      -1.21420940
C       -4.27897466      -4.28377037      -4.27944985
S       -3.36494458      -5.75137045      -4.84561108
C       -4.60337452      -6.55920132      -5.72856481
N       -4.33439686      -7.75278594      -6.33314921
H       -3.44333952      -8.22623853      -6.31467043
C       -5.48499054      -8.16926286      -6.94672505
C       -5.82346719      -9.28773746      -7.69997294
C       -7.14802081      -9.32195093      -8.14607967
C       -8.02916282      -8.27520499      -7.82784998
C       -9.45998437      -8.28546572      -8.29088175
N       -7.68088535      -7.18848379      -7.09119243
C       -6.40185617      -7.16354578      -6.66404282
N       -5.84087799      -6.17077111      -5.90878793
H       -1.23247824      -0.79010503      -3.62248029
H       -2.65218958      -2.21190746      -5.04863799
H       -3.94694994      -4.40381794      -1.56118579
H       -2.52473756      -2.97831178      -0.14173341
H       -4.63069442      -3.71180189      -5.14622393
H       -5.16746400      -4.59327646      -3.71661059
H       -5.11126322     -10.07347618      -7.92180190
H       -9.98985387      -9.15205518      -7.88321373
H       -9.51112049      -8.30031210      -9.38403874
H       -9.98490328      -7.38684533      -7.94850354
C       -7.55087924     -10.46100276      -8.92957569
C       -7.88827318     -11.41495867      -9.58575360
Br      -8.43381064     -12.95742469     -10.64673779
C       -1.79185930       1.79185930       1.79185930
C       -2.37690065       2.93816548       1.25823785
C       -3.18251344       3.74498609       2.06523577
C       -3.40275591       3.41272704       3.41080394
C       -2.81242662       2.24983228       3.92949419
C       -2.00692165       1.44263383       3.12319949
C       -4.28292333       4.27779750       4.28147403
S       -6.01796430       3.73544140       4.20852042
C       -6.72885343       4.83914728       5.32313995
N       -8.06708230       4.77118787       5.58206185
H       -8.70732661       4.11192807       5.16499380
C       -8.35645866       5.74514451       6.49937528
C       -9.52380906       6.15154593       7.13582259
C       -9.37082096       7.21593757       8.02929289
C       -8.10693221       7.79530698       8.22997860
C       -7.91071727       8.93918051       9.18643407
N       -6.97631398       7.38602393       7.59822367
C       -7.13227361       6.35839590       6.73877526
N       -6.13198358       5.78697331       6.00148015
H       -2.21423883       3.21165755       0.21916718
H       -3.63912241       4.63565089       1.63796173
H       -2.97867346       1.96636604       4.96691417
H       -1.55545593       0.54733427       3.54199255
H       -4.20955986       5.32244984       3.95671053
H       -3.92378013       4.23703648       5.31653444
H      -10.47944687       5.67545796       6.95163647
H       -8.18088979       8.64018401      10.20404898
H       -8.51023784       9.80286321       8.88237028
H       -6.86188663       9.25534585       9.20301967
C      -10.55000872       7.67457460       8.71687438
C      -11.53757846       8.05868312       9.29272387
Br     -13.13439522       8.67975410      10.22382380
C        1.79185930      -1.79185930       1.79185930
C        3.04818344      -2.18739900       1.33772154
C        3.85402003      -2.99470671       2.14400855
C        3.40569379      -3.41487042       3.40572269
C        2.14092018      -3.00002347       3.85080944
C        1.33473048      -2.19278099       3.04524351
C        4.28054784      -4.27818598       4.28346105
S        5.33487015      -3.26301049       5.36404548
C        6.13359793      -4.49921254       6.25833019
N        7.03958912      -4.15984939       7.22089351
H        7.29966674      -3.21657075       7.46801099
C        7.50640143      -5.32276213       7.77181489
C        8.42273874      -5.61176778       8.77667105
C        8.60787738      -6.97325877       9.03491526
C        7.89454415      -7.93600005       8.30167359
C        8.07030271      -9.40732547       8.55870366
N        7.00328857      -7.63556076       7.32171226
C        6.82986253      -6.32019067       7.07939156
N        5.98270122      -5.79484985       6.14288596
H        3.40945684      -1.87353724       0.36206948
H        4.83580685      -3.29436155       1.78256663
H        1.77739926      -3.30416140       4.83039302
H        0.35705105      -1.88321137       3.40452033
H        4.90799094      -4.92344919       3.65728010
H        3.64914634      -4.93639801       4.89180669
H        8.95145965      -4.83666139       9.31842025
H        7.78430338      -9.65511089       9.58570851
H        9.10714550      -9.70858454       8.37974130
H        7.43534207      -9.99677235       7.88813774
C        9.54580144      -7.32689328      10.06876298
C       10.33131284      -7.62306218      10.93461044
Br      11.60141833      -8.10194224      12.33461255
C       -0.00445707       0.01189536      -1.78238275
H       -0.66409135       0.67374010      -2.43557963
H        0.65740317      -0.63156657      -2.45157240
C       -0.90989263      -0.90692880      -0.91072765
C        0.90977584       0.90977584      -0.90977584
C       -0.00465871       1.77757030       0.00794375
H       -0.66225468       2.44313916      -0.64384735
H        0.64322798       2.43503045       0.67728295
C       -1.78241447       0.00034974      -0.00472694
H       -2.45427497      -0.65498947       0.64260836
H       -2.43311707       0.67328779      -0.65473579
C       -0.91132561       0.90220522       0.91563759
C       -0.01476271      -0.02253852       1.78660255
H       -0.67934791      -0.69751639       2.42135241
H        0.63392994       0.61504881       2.47327442
C        0.01484550      -1.77751727      -0.01636693
H        0.67870853      -2.42144646      -0.68295456
H       -0.62264859      -2.45592969       0.64226336
C        1.78714474       0.01002794       0.00389507
H        2.44202412       0.67113390       0.66197326
H        2.45385902      -0.65136977      -0.64189061
C        0.91606151      -0.90478549       0.90901405
