121
Properties=species:S:1:pos:R:3 pbc="F F F"
C        0.00000000       0.00000000       0.00000000
C        0.88195527       0.88195527      -0.88195527
C        0.51223084       1.12907250      -2.20228857
C        1.31943339       1.93477042      -3.00881941
C        2.50272150       2.49282926      -2.50102407
C        2.85547065       2.24033790      -1.16623246
C        2.04884404       1.43496039      -0.35923846
C        3.37052865       3.37360669      -3.36834745
S        2.88034934       5.12027789      -3.23158681
C        4.06334688       5.84884119      -4.24924052
N        4.06320464       7.20218654      -4.42522876
H        3.40906529       7.84357220      -4.00189892
C        5.10263772       7.50615764      -5.26247103
C        5.59681893       8.69307421      -5.79157237
C        6.71019343       8.55100441      -6.62514150
Br       7.43872637      10.13365197      -7.38063308
C        7.24852104       7.27796743      -6.87601725
C        8.44701792       7.09392806      -7.76567379
N        6.75179792       6.12785875      -6.35119284
C        5.67847123       6.27363212      -5.54762934
N        5.02277076       5.25455650      -4.91339770
H       -0.39919949       0.70229076      -2.61226021
H        1.01964210       2.12602602      -4.03735484
H        3.76255036       2.67195814      -0.74773310
H        2.33859185       1.24764244       0.67116362
H        3.29505719       3.05056696      -4.41338402
H        4.41935296       3.25733271      -3.07095331
H        5.15046131       9.65533893      -5.57102898
H        9.31353606       7.62389449      -7.35798016
H        8.23481517       7.45363312      -8.77731097
H        8.71438667       6.03422063      -7.84193278
C       -0.88195527      -0.88195527      -0.88195527
C       -2.25880501      -0.91340017      -0.67138672
C       -3.06490422      -1.72074522      -1.47737377
C       -2.49795487      -2.50454161      -2.49407834
C       -1.11020142      -2.45415787      -2.69768172
C       -0.30364450      -1.64711245      -1.89228595
C       -3.36953311      -3.36908211      -3.37386757
S       -3.92937280      -2.45745755      -4.84538369
C       -4.81347008      -3.69568539      -5.65227311
N       -5.41417265      -3.42827883      -6.84816846
H       -5.39207189      -2.53853467      -7.32392984
C       -6.02969763      -4.57834505      -7.26322370
C       -6.78087566      -4.91779500      -8.38279484
C       -7.23040788      -6.24124806      -8.41468340
Br      -8.26108133      -6.77377436      -9.91815573
C       -6.91729538      -7.12044598      -7.36476435
C       -7.38409834      -8.55005772      -7.37246371
N       -6.18259739      -6.77123568      -6.27701645
C       -5.75211853      -5.49328115      -6.25433302
N       -4.99800924      -4.93167053      -5.26104520
H       -2.71373169      -0.31506553       0.11344574
H       -4.13988380      -1.73476535      -1.30837381
H       -0.65008790      -3.04458188      -3.48757182
H        0.76935578      -1.62235343      -2.06207302
H       -4.23875127      -3.71698282      -2.80327408
H       -2.80823833      -4.25987903      -3.67952161
H       -6.99872862      -4.20709589      -9.17100470
H       -6.97554464      -9.08330627      -8.23655980
H       -8.47734415      -8.59833615      -7.39007895
H       -7.04549850      -9.07349262      -6.47154897
C       -0.88195527       0.88195527       0.88195527
C       -2.03677007       1.45410376       0.35271808
C       -2.84251163       2.26135159       1.15916000
C       -2.49489500       2.50486501       2.49681482
C       -1.33262782       1.91358475       3.01582845
C       -0.52660886       1.10629254       2.21014150
C       -3.37119126       3.36802227       3.37326927
S       -4.63085960       2.37250416       4.22885028
C       -5.39715808       3.59465764       5.16961287
N       -6.43114657       3.26313456       5.99633881
H       -6.80756178       2.33404846       6.11292617
C       -6.83898067       4.41034114       6.62194456
C       -7.82631259       4.69742322       7.55772970
C       -7.90428693       6.03912665       7.94292576
Br      -9.23032320       6.50138674       9.22130149
C       -7.02479291       6.98581435       7.39189846
C       -7.08260910       8.43527280       7.78873786
N       -6.06609536       6.68770910       6.47704505
C       -5.99692411       5.39134500       6.11146358
N       -5.10857195       4.87128980       5.21086321
H       -2.31893022       1.27830741      -0.68188615
H       -3.74518536       2.69976375       0.73807384
H       -1.04962264       2.07913296       4.05348600
H        0.37126657       0.65872996       2.62760729
H       -3.86076295       4.13575754       2.76248767
H       -2.74822575       3.89107783       4.10833540
H       -8.48402389       3.93504556       7.95775977
H       -6.88695618       8.54885159       8.85960293
H       -8.05940550       8.86339524       7.54295852
H       -6.32397748       9.01505304       7.25150956
C        0.88195527      -0.88195527       0.88195527
C        0.31363526      -1.59381167       1.93614498
C        1.12053624      -2.39941851       2.74306847
C        2.50011951      -2.49305184       2.50340347
C        3.05439585      -1.77571928       1.43192588
C        2.24823030      -0.97013792       0.62467468
C        3.37195540      -3.37271889       3.36780850
S        3.47706792      -5.05987258       2.69527354
C        4.56043417      -5.77226605       3.82872836
N        4.92908618      -7.07820281       3.68333095
H        4.61377499      -7.69300842       2.94775300
C        5.79237738      -7.37576407       4.70312493
C        6.48789223      -8.52173142       5.07184186
C        7.28570773      -8.38845949       6.21217212
Br       8.26614326      -9.91575530       6.77111286
C        7.34226468      -7.16323835       6.89700268
C        8.19341930      -6.98867312       8.12452735
N        6.65454304      -6.05321364       6.52309283
C        5.88808247      -6.18985714       5.42179309
N        5.11770987      -5.20428159       4.86873350
H       -0.75235762      -1.53021916       2.13748995
H        0.66653814      -2.95547977       3.56100505
H        4.11976575      -1.84220519       1.22027066
H        2.69454638      -0.41944530      -0.19892100
H        2.96646452      -3.40660910       4.38593454
H        4.37541899      -2.93634404       3.43587594
H        6.41566928      -9.44749907       4.51366087
H        9.24849390      -7.15869752       7.88821929
H        7.87523883      -7.67560518       8.91491525
H        8.10338509      -5.96988531       8.51726969
