166
Properties=species:S:1:pos:R:3 pbc="F F F"
O        8.03978183       2.96652738      -6.09765926
C        7.17746576       3.63772214      -5.53614339
C        6.23368728       4.52307608      -6.34007332
S        4.78007726       3.57116773      -6.88190033
C        3.99067395       3.31806172      -5.37235776
N        3.14532164       2.25986467      -5.20768220
H        2.90758087       1.58620726      -5.92120807
C        2.74514342       2.26043944      -3.89811720
C        1.93157195       1.42795889      -3.13870106
C        1.79664764       1.79664764      -1.79664764
C        2.45759195       2.93505008      -1.30466154
C        2.32287486       3.36077544       0.13125849
N        3.25619163       3.73462522      -2.05963002
C        3.37418441       3.37185038      -3.35186333
N        4.15087274       4.01740145      -4.27459110
N        6.93124962       3.67917595      -4.17344892
C        7.58253277       2.96258780      -3.15008476
C        8.67078375       2.11293381      -3.36061108
C        9.25403589       1.42786264      -2.28957083
C        8.75852718       1.59157359      -0.99781191
C        7.67588113       2.44041971      -0.78376847
C        7.08678875       3.12265055      -1.84928433
H        6.77253719       4.88169640      -7.22278579
H        5.93604902       5.40654591      -5.76662403
H        1.44471498       0.55456839      -3.55761497
H        2.69798113       2.58123392       0.80197030
H        1.27759356       3.58366960       0.36934234
H        2.90490229       4.26938539       0.32253875
H        6.09301480       4.18918259      -3.88966268
H        9.08786990       1.95730223      -4.35013056
H       10.09660181       0.76606260      -2.47039136
H        9.21995578       1.05738913      -0.17244912
H        6.23913572       3.77787037      -1.66140910
C        7.15656955       2.61457796       0.54799142
C        6.72164611       2.76043549       1.66334032
Br       6.01841168       2.99627479       3.46676516
O       -4.58706763      -8.62933973      -3.88756112
C       -4.50748613      -7.49388877      -4.34995639
C       -5.76338834      -6.68491699      -4.64853135
S       -6.29506976      -5.77104183      -3.16703373
C       -5.02707931      -4.61242020      -3.04159392
N       -4.73160608      -4.04454935      -1.83671309
H       -5.21642215      -4.22826506      -0.97030899
C       -3.63538511      -3.24535320      -2.02296174
C       -2.86490765      -2.45433866      -1.17898558
C       -1.79664764      -1.79664764      -1.79664764
C       -1.56498692      -1.95915843      -3.17315822
C       -0.43002804      -1.25665926      -3.86570451
N       -2.32413858      -2.74305193      -3.98325637
C       -3.35306388      -3.36734982      -3.37748442
N       -4.21938491      -4.22435499      -3.99912539
N       -3.33895475      -6.80747602      -4.63744372
C       -2.01011884      -7.23602141      -4.44906508
C       -1.65564122      -8.50441919      -3.98426823
C       -0.31034075      -8.84747773      -3.81365087
C        0.69236954      -7.92762111      -4.11266111
C        0.34272871      -6.66336253      -4.57943548
C       -0.99801426      -6.31383904      -4.74687033
H       -6.55591424      -7.38162318      -4.93948197
H       -5.60601757      -6.00861747      -5.49458392
H       -3.07551286      -2.36184292      -0.11954256
H        0.53107365      -1.56571333      -3.44260506
H       -0.54109102      -0.17069341      -3.78013639
H       -0.41545755      -1.50283059      -4.93346080
H       -3.45322552      -5.82527119      -4.89336337
H       -2.40459717      -9.25059728      -3.74010824
H       -0.05082186      -9.83639486      -3.44583905
H        1.73406606      -8.20441514      -3.97944495
H       -1.25015738      -5.31954537      -5.10871245
C        1.37264899      -5.70600320      -4.88980189
C        2.23520723      -4.90421475      -5.14973376
Br       3.62989095      -3.60779065      -5.57002161
O       -8.06147555       2.98028932       6.06220360
C       -7.19059616       3.64931613       5.51141900
C       -6.24633631       4.52241919       6.32808118
S       -4.80321797       3.55660084       6.87332651
C       -4.00503644       3.30847987       5.36757712
N       -3.16593503       2.24555662       5.20137687
H       -2.93789356       1.56530094       5.91180171
C       -2.75659566       2.25243994       3.89466446
C       -1.94353526       1.41958347       3.13511317
C       -1.79664764       1.79664764       1.79664764
C       -2.44619043       2.94304963       1.30806351
C       -2.29845537       3.37780227      -0.12386582
N       -3.24447759       3.74292833       2.06304095
C       -3.37404424       3.37200582       3.35184806
N       -4.15266846       4.01654705       4.27364978
N       -6.93455460       3.69852509       4.15079480
C       -7.58362135       2.99365692       3.11792706
C       -8.67920694       2.15020520       3.31491649
C       -9.25969259       1.47670751       2.23506925
C       -8.75401695       1.64592714       0.94796859
C       -7.66401700       2.48863477       0.74741754
C       -7.07767245       3.15928978       1.82176140
H       -6.78884995       4.87865549       7.20951394
H       -5.93854641       5.40775070       5.76292185
H       -1.46571514       0.53990888       3.55127431
H       -2.67426794       2.60559453      -0.80261772
H       -1.25000565       3.59501758      -0.35310241
H       -2.87279134       4.29177747      -0.31281987
H       -6.09082311       4.20460777       3.87642920
H       -9.10428971       1.99061819       4.30039479
H      -10.10808974       0.81958568       2.40538035
H       -9.21335660       1.12074555       0.11569188
H       -6.22418479       3.80984517       1.64438524
C       -7.13418665       2.66841274      -0.57944330
C       -6.69045374       2.81897679      -1.69068925
Br      -5.97297514       3.06242613      -3.48747997
O        5.37179087      -8.40987458       3.32230302
C        5.03544114      -7.39252979       3.92336035
C        6.08001824      -6.47325065       4.54356779
S        6.65736930      -5.25494451       3.32083151
C        5.24316545      -4.28688555       3.15104243
N        5.03271291      -3.57197388       2.00818172
H        5.66138790      -3.53462022       1.21898808
C        3.80185499      -2.98231774       2.11952733
C        3.03849902      -2.17938232       1.28035056
C        1.79664764      -1.79664764       1.79664764
C        1.39983040      -2.22137097       3.07610220
C        0.07457223      -1.81723379       3.66058579
N        2.15582318      -3.01326474       3.88135895
C        3.35196019      -3.37112395       3.37481397
N        4.25197962      -4.18696678       4.00391889
N        3.73856746      -6.94038806       4.10491896
C        2.54263347      -7.51791530       3.63465656
C        2.47862090      -8.72705124       2.93865650
C        1.24961085      -9.22660867       2.49524983
C        0.07325444      -8.52490665       2.74975158
C        0.13296641      -7.32083822       3.44626467
C        1.35689803      -6.81509618       3.88672941
H        6.92864314      -7.08749651       4.86087973
H        5.69019501      -5.97969350       5.43933045
H        3.38092248      -1.87960004       0.29637582
H       -0.74920383      -2.18553378       3.04091479
H        0.01146732      -0.72794643       3.75250708
H       -0.05191990      -2.23999227       4.66367657
H        3.64691374      -6.00957705       4.51536929
H        3.37028013      -9.30528179       2.71974077
H        1.21691659     -10.16597375       1.95016543
H       -0.87634932      -8.92241557       2.40372778
H        1.38235204      -5.87054243       4.42552073
C       -1.07790125      -6.58841567       3.71264168
C       -2.09200291      -5.97501177       3.93573242
Br      -3.73171953      -4.98318956       4.29645128
C       -0.00445707       0.01189536      -1.78238275
H       -0.66409135       0.67374010      -2.43557963
H        0.65740317      -0.63156657      -2.45157240
C       -0.90989263      -0.90692880      -0.91072765
C        0.90977584       0.90977584      -0.90977584
C       -0.00465871       1.77757030       0.00794375
H       -0.66225468       2.44313916      -0.64384735
H        0.64322798       2.43503045       0.67728295
C       -1.78241447       0.00034974      -0.00472694
H       -2.45427497      -0.65498947       0.64260836
H       -2.43311707       0.67328779      -0.65473579
C       -0.91132561       0.90220522       0.91563759
C       -0.01476271      -0.02253852       1.78660255
H       -0.67934791      -0.69751639       2.42135241
H        0.63392994       0.61504881       2.47327442
C        0.01484550      -1.77751727      -0.01636693
H        0.67870853      -2.42144646      -0.68295456
H       -0.62264859      -2.45592969       0.64226336
C        1.78714474       0.01002794       0.00389507
H        2.44202412       0.67113390       0.66197326
H        2.45385902      -0.65136977      -0.64189061
C        0.91606151      -0.90478549       0.90901405
