125
Properties=species:S:1:pos:R:3 pbc="F F F"
C        0.00000000       0.00000000       0.00000000
O        4.53064715       0.94767431      -6.82199917
C        4.01012277       1.97811782      -6.40088826
C        4.86585384       3.13479493      -5.89907671
S        5.64871027       2.68198232      -4.32217686
C        4.23417063       2.42722341      -3.37484408
N        4.07229615       1.25939733      -2.69058239
H        4.73626976       0.49854270      -2.67085193
C        2.84144466       1.30591152      -2.09425314
C        2.12576492       0.41585807      -1.29742612
C        0.88049272       0.88049272      -0.88049272
C        0.44448995       2.14490241      -1.27042169
N        1.12606882       3.00604459      -2.06572423
C        2.33487392       2.55028941      -2.46190518
N        3.19432391       3.21980318      -3.29046982
N        2.64915946       2.21521272      -6.28652193
C        1.59335672       1.36720290      -6.68544766
C        1.77593076       0.14716898      -7.34090967
C        0.67744979      -0.63993999      -7.70364836
C       -0.61669591      -0.20847653      -7.42242480
C       -0.80395613       1.00991111      -6.77699729
Br      -2.55770384       1.60743346      -6.39953117
C        0.28933455       1.79570601      -6.40610751
H        4.28030414       4.05258691      -5.78547609
H        5.64150966       3.33272208      -6.64557868
H        2.50926481      -0.55983677      -1.02671504
H       -0.52116510       2.52210000      -0.93937070
H        2.37657487       3.04775346      -5.76963582
H        2.76465196      -0.22699392      -7.58876030
H        0.83784096      -1.58930554      -8.20883024
H       -1.46427043      -0.82449937      -7.71080432
H        0.11795486       2.74157798      -5.89961512
O       -2.58770370      -7.51157197      -2.20104496
C       -3.41053413      -6.61368911      -2.36490561
C       -3.89317622      -6.24429110      -3.76225816
S       -2.55604179      -5.41980019      -4.67702746
C       -2.32686954      -4.05176700      -3.65760157
N       -1.08292734      -3.75154350      -3.18780503
H       -0.24013256      -4.26658233      -3.39894949
C       -1.21283359      -2.67226579      -2.35650993
C       -0.31391481      -1.94047240      -1.58466190
C       -0.88049272      -0.88049272      -0.88049272
C       -2.24728875      -0.63058783      -0.98193748
N       -3.13144323      -1.35399396      -1.71240045
C       -2.57357018      -2.37718915      -2.39630918
N       -3.25989634      -3.26719742      -3.17750315
N       -3.96036684      -5.82115947      -1.36936780
C       -3.74801652      -5.92073431       0.02274355
C       -2.97478694      -6.91542193       0.62619946
C       -2.80940422      -6.94699340       2.01523946
C       -3.42520868      -5.98790673       2.81586305
C       -4.20307124      -4.99994613       2.22006510
Br      -5.04997680      -3.69947848       3.30019450
C       -4.36514381      -4.95955629       0.83355202
H       -4.78261212      -5.60720126      -3.72855376
H       -4.17206418      -7.16710165      -4.28064459
H        0.74086678      -2.18022384      -1.53678603
H       -2.69721784       0.20287013      -0.44595790
H       -4.49991865      -5.01603688      -1.67800862
H       -2.48225094      -7.68898764       0.04482025
H       -2.20003895      -7.72537063       2.46804392
H       -3.29423347      -6.02195698       3.89415592
H       -4.97424583      -4.17606203       0.39115990
O       -3.46998467       1.50515830       7.32517765
C       -3.23292601       2.50499151       6.65121134
C       -4.36529209       3.38988343       6.14454995
S       -5.28941503       2.52111793       4.84233650
C       -4.02360418       2.31932609       3.69330785
N       -3.75158550       1.08293859       3.18775177
H       -4.25050372       0.23582588       3.41933479
C       -2.66523353       1.21094999       2.36542579
C       -1.92894733       0.31082780       1.59927397
C       -0.88049272       0.88049272       0.88049272
C       -0.63986179       2.24977279       0.97017947
N       -1.33780526       3.12710707       1.73292532
C       -2.35601888       2.56789970       2.42314994
N       -3.18376674       3.23754930       3.28328087
N       -1.97985599       2.93146777       6.23957036
C       -0.73000383       2.35767134       6.55833211
C       -0.56563349       1.27398630       7.42438962
C        0.70794224       0.75901789       7.69008251
C        1.83195129       1.33064763       7.09855602
C        1.67404980       2.41543112       6.24157095
Br       3.19534600       3.20318742       5.44141937
C        0.40443931       2.92838930       5.96719809
H       -3.99404426       4.35052553       5.77379735
H       -5.03409017       3.60073376       6.98498649
H       -2.15531708      -0.74753810       1.56836409
H        0.16866237       2.70638044       0.40258754
H       -1.95998025       3.68134916       5.55263474
H       -1.41046199       0.80053814       7.91541819
H        0.81733016      -0.08813665       8.36283247
H        2.81767389       0.92652469       7.31318373
H        0.30615064       3.77367824       5.29162036
O        2.61679982      -7.50930552       2.17421529
C        3.43379101      -6.60786218       2.34747566
C        3.90677665      -6.24350327       3.74944556
S        2.56017640      -5.43134002       4.66135303
C        2.32906978      -4.05900937       3.64815897
N        1.08608015      -3.76300086       3.17319485
H        0.24498255      -4.28377590       3.37690593
C        1.21459846      -2.67849082       2.34852003
C        0.31590302      -1.94738892       1.57575716
C        0.88049272      -0.88049272       0.88049272
C        2.24532515      -0.62370058       0.99078833
N        3.12943636      -1.34626912       1.72213216
C        2.57346009      -2.37622343       2.39738500
N        3.26038550      -3.26674559       3.17746582
N        3.98469025      -5.80690227       1.35930158
C        3.78048080      -5.90000137      -0.03447490
C        3.01601592      -6.89556672      -0.64757324
C        2.85838320      -6.92042529      -2.03765032
C        3.47327678      -5.95362205      -2.82964647
C        4.24245311      -4.96471629      -2.22421714
Br       5.08809340      -3.65375049      -3.29258309
C        4.39674123      -4.93104382      -0.83663697
H        4.79287773      -5.60139919       3.72409022
H        4.18788846      -7.16760731       4.26431466
H       -0.73727196      -2.19262066       1.52079438
H        2.69359426       0.21512292       0.46183426
H        4.51813049      -5.00055421       1.67527945
H        2.52456541      -7.67498087      -0.07312795
H        2.25577087      -7.69961918      -2.49802438
H        3.34837016      -5.98247500      -3.90881063
H        4.99911903      -4.14667741      -0.38664848
