105
Properties=species:S:1:pos:R:3 pbc="F F F"
C        0.00000000       0.00000000       0.00000000
C        0.88175555       0.88175555      -0.88175555
C        0.70983256       2.26425207      -0.86537413
C        1.50887845       3.06344622      -1.68110909
C        2.47520452       2.47668238      -2.49876495
F        3.18483911       3.28196784      -3.30222486
C        2.67237583       1.09095481      -2.51509278
C        1.84983725       0.29496744      -1.69996437
C        3.66163753       0.44166840      -3.37012376
N        3.54683120      -0.77225722      -3.90964846
N        4.68640231      -1.05365003      -4.65337948
C        5.44951444      -0.01064295      -4.52077038
S        6.99914407       0.47781579      -5.03458359
C        6.73473321       1.94233907      -4.07992940
N        5.60507528       2.06122193      -3.43555190
N        4.89450395       0.93554474      -3.72936347
C        7.73043180       2.96711791      -4.01773915
N        7.49853198       4.11540016      -3.29231068
H        6.65826374       4.34109976      -2.76639956
N        8.50603609       5.00243789      -3.30720782
C        9.42456771       4.41429037      -4.07416440
C        8.99455508       3.15936851      -4.53606475
Br      10.06663994       2.08905830      -5.63611047
H       -0.04624581       2.72377315      -0.23350430
H        1.37749943       4.14147115      -1.69606930
H        1.96622194      -0.78830341      -1.70873866
H       10.36104983       4.92588141      -4.25970848
C       -0.88175555      -0.88175555      -0.88175555
C       -1.75873072      -1.78927114      -0.29145691
C       -2.55234829      -2.60022469      -1.10086078
C       -2.46843929      -2.49280596      -2.48940659
F       -3.21468305      -3.32851218      -3.22583659
C       -1.60493905      -1.57486646      -3.09861791
C       -0.79874083      -0.77413107      -2.27189715
C       -1.47867719      -1.44731504      -4.54743746
N       -0.36879306      -1.11034913      -5.20508025
N       -0.63361865      -1.08358135      -6.56893176
C       -1.89186305      -1.38709774      -6.68068109
S       -3.03365155      -1.54167379      -7.93621810
C       -4.22210953      -1.86674457      -6.66814759
N       -3.81547423      -1.85922436      -5.42715052
N       -2.47801967      -1.60086075      -5.48053174
C       -5.58914028      -2.13163342      -6.99451515
N       -6.49798545      -2.41100305      -5.99725432
H       -6.30815519      -2.45801477      -4.99959309
N       -7.74930426      -2.64065859      -6.42571894
C       -7.65142093      -2.51233022      -7.74927133
C       -6.34168989      -2.19935152      -8.14894693
Br      -5.88777241      -1.95525436      -9.94878192
H       -1.82206768      -1.87916382       0.79019986
H       -3.22866097      -3.32662093      -0.65975799
H       -0.10149472      -0.06623802      -2.71892445
H       -8.53607133      -2.65221955      -8.35834884
C       -0.88175555       0.88175555       0.88175555
C       -2.26023929       0.68024030       0.89897917
C       -3.06165809       1.49569191       1.69608376
C       -2.47980276       2.49821587       2.47263321
F       -3.29608428       3.28894109       3.18400644
C       -1.09516544       2.70342723       2.47983074
C       -0.29974382       1.88506079       1.65996444
C       -0.45407608       3.75313819       3.26621542
N        0.65502112       4.41139101       2.92785254
N        0.96659343       5.32840285       3.92432233
C        0.04757251       5.17717671       4.83003768
S       -0.31957440       5.83219000       6.35977905
C       -1.66444147       4.68537217       6.40718804
N       -1.82818630       3.88654964       5.38711317
N       -0.84314971       4.21313507       4.50312738
C       -2.54759081       4.63662141       7.53107664
N       -3.60802381       3.75687567       7.54134334
H       -3.85868630       3.10069668       6.80638008
N       -4.36452625       3.80174489       8.64941066
C       -3.78016010       4.74816227       9.38470012
C       -2.65740060       5.29278341       8.73980433
Br      -1.62495890       6.64413033       9.52271947
H       -2.71696532      -0.09645033       0.29051665
H       -4.13993983       1.36620671       1.70889334
H        0.77877113       2.03651787       1.62891046
H       -4.19831525       4.99559969      10.35272478
C        0.88175555      -0.88175555       0.88175555
C        1.83245359      -0.29369591       1.71330927
C        2.64292674      -1.10361170       2.50689532
C        2.49216670      -2.49012721       2.46835794
F        3.32808191      -3.22928058       3.21166933
C        1.53090599      -3.09636948       1.65114794
C        0.73077009      -2.26983284       0.84416613
C        1.35697113      -4.54374118       1.57271737
N        0.96726201      -5.22325608       0.49370434
N        0.90838980      -6.57727671       0.80046524
C        1.24652323      -6.66108176       2.05203689
S        1.39863245      -7.88656166       3.22634934
C        1.79681776      -6.59449012       4.36569380
N        1.81351172      -5.36634980       3.92198759
N        1.51322425      -5.45123036       2.59495755
C        2.09333886      -6.88834571       5.73360428
N        2.42940442      -5.87368924       6.60314916
H        2.49999413      -4.88393712       6.38183181
N        2.68420595      -6.27188908       7.85958676
C        2.51404494      -7.59324635       7.80573119
C        2.14983442      -8.02163794       6.51851597
Br       1.83917882      -9.82582388       6.12680600
H        1.95604145       0.78613100       1.74112119
H        3.40218497      -0.66502801       3.14782691
H       -0.01081116      -2.71551365       0.18195470
H        2.66271572      -8.17997175       8.70395224
