113
Properties=species:S:1:pos:R:3 pbc="F F F"
C        0.00000000       0.00000000       0.00000000
C        0.88175555       0.88175555      -0.88175555
C        0.70983256       2.26425207      -0.86537413
C        1.50887845       3.06344622      -1.68110909
C        2.47520452       2.47668238      -2.49876495
F        3.18483911       3.28196784      -3.30222486
C        2.67237583       1.09095481      -2.51509278
C        1.84983725       0.29496744      -1.69996437
C        3.66163753       0.44166840      -3.37012376
N        3.54683120      -0.77225722      -3.90964846
N        4.68640231      -1.05365003      -4.65337948
C        5.44951444      -0.01064295      -4.52077038
S        6.99914407       0.47781579      -5.03458359
C        6.73473321       1.94233907      -4.07992940
N        5.60507528       2.06122193      -3.43555190
N        4.89450395       0.93554474      -3.72936347
C        7.73043180       2.96711791      -4.01773915
N        7.49853198       4.11540016      -3.29231068
H        6.65826374       4.34109976      -2.76639956
N        8.50603609       5.00243789      -3.30720782
C        9.42456771       4.41429037      -4.07416440
C        8.99455508       3.15936851      -4.53606475
H       -0.04624581       2.72377315      -0.23350430
H        1.37749943       4.14147115      -1.69606930
H        1.96622194      -0.78830341      -1.70873866
H       10.36104983       4.92588141      -4.25970848
C        9.81915968       2.33612889      -5.38217572
C       10.50976604       1.64666571      -6.09079366
Br      11.62641811       0.53186206      -7.23656894
C       -0.88175555      -0.88175555      -0.88175555
C       -1.21548046      -0.45772097      -2.16625734
C       -2.03050658      -1.26057267      -2.96235451
C       -2.49805564      -2.48034239      -2.47225382
F       -3.31930883      -3.19381542      -3.25590756
C       -2.15886207      -2.92908740      -1.19047394
C       -1.34950228      -2.10333425      -0.39193252
C       -2.64351487      -4.19093391      -0.63898091
N       -2.90145960      -4.42994683       0.64718400
N       -3.33643383      -5.74172362       0.79202570
C       -3.30798459      -6.24727104      -0.40438624
S       -3.62416834      -7.75548791      -1.13188719
C       -3.09735300      -7.01238413      -2.64726456
N       -2.71814764      -5.76299201      -2.62070946
N       -2.87190626      -5.35998107      -1.32752484
C       -3.08893236      -7.75971447      -3.86664203
N       -2.70248246      -7.15888422      -5.04487614
H       -2.40741723      -6.19343061      -5.16491521
N       -2.73389438      -7.96070657      -6.12108085
C       -3.16153342      -9.12342059      -5.62806848
C       -3.39426070      -9.05102023      -4.24470740
H       -0.85728911       0.49492526      -2.54866779
H       -2.31673714      -0.93885617      -3.95944657
H       -1.08752136      -2.41714678       0.61801094
H       -3.28291234      -9.96610059      -6.29762679
C       -3.86092590     -10.18570183      -3.49083656
C       -4.25175800     -11.13599768      -2.85946973
Br      -4.88370045     -12.67254569      -1.83860297
C       -0.88175555       0.88175555       0.88175555
C       -0.33466236       2.00317127       1.50162514
C       -1.14073039       2.79760982       2.31509355
C       -2.48475797       2.46979172       2.49610215
F       -3.20696992       3.23510768       3.32695421
C       -3.05446957       1.35629832       1.86765553
C       -2.22753468       0.55450281       1.06273156
C       -4.45179035       0.97378845       2.04785088
N       -4.92578552      -0.27237407       2.03081100
N       -6.30094941      -0.24313688       2.22831922
C       -6.60550783       1.01493241       2.33920163
S       -8.01776103       1.94537386       2.54840856
C       -6.97066119       3.36441901       2.42192148
N       -5.69218770       3.17136177       2.23829964
N       -5.52452581       1.81866519       2.21622116
C       -7.51032249       4.68527547       2.51969089
N       -6.67794512       5.78094479       2.44735291
H       -5.66831055       5.76867925       2.32877326
N       -7.29947293       6.96641121       2.54979765
C       -8.58130919       6.63155598       2.70015732
C       -8.76286571       5.23872048       2.68840214
H        0.71372147       2.25779054       1.36696257
H       -0.72817122       3.66531890       2.82154977
H       -2.63872705      -0.33080063       0.57873078
H       -9.32047859       7.41550002       2.81066111
C      -10.06408776       4.63937031       2.83400623
C      -11.15386122       4.13741453       2.95594966
Br     -12.91593275       3.32579450       3.15312186
C        0.88175555      -0.88175555       0.88175555
C        1.40705691      -2.06516310       0.36723875
C        2.20111946      -2.87232268       1.17999162
C        2.46877684      -2.48770414       2.49417086
F        3.19579836      -3.32108362       3.25214984
C        1.96274927      -1.29396200       3.02171214
C        1.15068049      -0.49685010       2.19723847
C        2.20804775      -0.86877541       4.39660652
N        1.36876416      -0.16161413       5.15384414
N        1.94779103       0.05924365       6.39758438
C        3.11620230      -0.50558910       6.33785048
S        4.47139270      -0.68480980       7.35534095
C        5.24392081      -1.51452808       5.99855280
N        4.56515537      -1.64604981       4.89064393
N        3.35163090      -1.07437579       5.13340547
C        6.57392940      -2.02762103       6.11373842
N        7.15239367      -2.69667324       5.05717591
H        6.72735790      -2.88529733       4.15310783
N        8.40282686      -3.12960461       5.28325033
C        8.64579324      -2.73404337       6.53318588
C        7.55065583      -2.05139194       7.08794057
H        1.19544891      -2.37022202      -0.65463929
H        2.60454176      -3.80757306       0.80292507
H        0.72520273       0.42681665       2.58827111
H        9.60624110      -2.96082787       6.97957075
C        7.57968032      -1.52846260       8.42932138
C        7.60398833      -1.09050927       9.55272781
Br       7.64329233      -0.38237579      11.36918099
