145
Properties=species:S:1:pos:R:3 pbc="F F F"
C        0.00000000       0.00000000       0.00000000
O        3.40159633       2.00105528      -7.32803783
C        4.24518841       2.39468950      -6.52478740
C        4.29766735       3.85581125      -6.09147662
S        2.64000212       4.41947041      -5.59819899
C        2.40256983       3.43415340      -4.20608317
N        1.24714631       2.72410009      -4.05780046
H        0.49232768       2.69384776      -4.72787029
C        1.30617783       2.09863536      -2.84101301
C        0.42666314       1.27873931      -2.13648965
C        0.88073148       0.88073148      -0.88073148
C        2.13267344       1.29484780      -0.43240949
N        3.00168802       2.07415831      -1.12140884
C        2.55116392       2.46686110      -2.33411981
N        3.23350623       3.27094517      -3.20701400
N        5.23227096       1.61564773      -5.94052382
C        5.37311635       0.20855141      -6.01115012
C        4.38168475      -0.60966483      -6.57104701
C        4.51848416      -2.00011143      -6.59869154
C        5.65684201      -2.58959920      -6.06875685
C        6.65971461      -1.79945401      -5.51362641
C        6.52890794      -0.39722715      -5.46851198
C        7.67651199       0.39457736      -4.89865575
H        4.64028472       4.45071610      -6.94362552
H        5.00043643       4.01357415      -5.26782704
H       -0.53909387       0.98677758      -2.53083504
H        2.49292515       0.99732677       0.54999509
H        5.92120334       2.10439497      -5.38469642
H        3.46653447      -0.19792440      -6.98477762
H        3.72722611      -2.60460685      -7.03395164
H        7.55266762      -2.27444397      -5.11238314
H        7.32691950       1.14763856      -4.18656805
H        8.23041646       0.88086402      -5.70833269
H        8.37416267      -0.24970813      -4.35225246
C        5.80076039      -4.02216914      -6.09387374
C        5.92129204      -5.22194647      -6.11490914
Br       6.11618152      -7.16188493      -6.14892161
O       -4.29267664      -1.45783676      -6.98017604
C       -4.91583491      -2.10674591      -6.14208448
C       -4.67550177      -3.60240359      -5.96704986
S       -2.89243504      -3.93523773      -5.82999875
C       -2.56434631      -3.14034261      -4.33811748
N       -1.51857920      -2.26967245      -4.24079520
H       -0.90494095      -2.00968338      -4.99942141
C       -1.45648110      -1.85085484      -2.93849025
C       -0.59864460      -1.00352135      -2.23972615
C       -0.88073148      -0.88073148      -0.88073148
C       -1.96025208      -1.56827568      -0.33140296
N       -2.81115927      -2.37656177      -1.00953413
C       -2.52580676      -2.50116605      -2.32517203
N       -3.22335766      -3.27387009      -3.21423765
N       -5.89014384      -1.60663156      -5.29166711
C       -6.24751372      -0.25085184      -5.09445232
C       -5.50077222       0.80120483      -5.64349954
C       -5.84425387       2.13512815      -5.40793855
C       -6.94729018       2.43237389      -4.62108337
C       -7.71014897       1.40635689      -4.07009493
C       -7.36771686       0.05733901      -4.28981492
C       -8.26866839      -0.99768623      -3.70339047
H       -5.06961123      -4.11533616      -6.84967895
H       -5.19286498      -4.00015869      -5.08881394
H        0.22971666      -0.49273990      -2.71549550
H       -2.18377984      -1.48657239       0.73009538
H       -6.39178532      -2.28462701      -4.73388241
H       -4.62106186       0.62094298      -6.25326881
H       -5.23909210       2.92582099      -5.84329980
H       -8.57977198       1.65390833      -3.46474313
H       -7.69296530      -1.77515529      -3.19300553
H       -8.87712889      -1.44796252      -4.49452176
H       -8.94788202      -0.57274130      -2.95608367
C       -7.30348723       3.80569261      -4.37467038
C       -7.60180226       4.95584704      -4.16829950
Br      -8.08415243       6.81554947      -3.83461523
O       -2.47848614       2.82626595       7.42593735
C       -3.50370518       2.90876367       6.75219645
C       -3.91517029       4.22613645       6.10364848
S       -2.50618645       4.94561426       5.20587082
C       -2.31042628       3.75672266       3.97565746
N       -1.07764977       3.23120926       3.72018782
H       -0.23211023       3.45885646       4.22307906
C       -1.21083097       2.37603082       2.65896441
C       -0.31435624       1.58879765       1.93873822
C       -0.88073148       0.88073148       0.88073148
C       -2.24623163       0.98620373       0.62749537
N       -3.12707116       1.73287028       1.33731373
C       -2.57014754       2.42669809       2.35529920
N       -3.24528042       3.26443367       3.20175132
N       -4.39921440       1.87792042       6.51130768
C       -4.24489454       0.50910145       6.83882189
C       -3.03270679      -0.00757286       7.31793301
C       -2.88484364      -1.36815468       7.60037531
C       -3.95515317      -2.22994362       7.41079011
C       -5.17205042      -1.74133067       6.94316725
C       -5.33091090      -0.37381264       6.64309451
C       -6.69040988       0.08968842       6.18964679
H       -4.22399646       4.91349433       6.89713555
H       -4.76093264       4.09982845       5.42107653
H        0.74152907       1.54361045       2.17643736
H       -2.69691779       0.44482474      -0.20148569
H       -5.25315154       2.12677894       6.03036425
H       -2.16196693       0.62273596       7.46868480
H       -1.92892067      -1.73592324       7.96357348
H       -6.00675585      -2.42663246       6.81048339
H       -6.61890180       0.73374715       5.30847716
H       -7.18886108       0.62893396       7.00181812
H       -7.32672135      -0.75585048       5.90583613
C       -3.80623821      -3.63289991       7.69912670
C       -3.68152193      -4.80787580       7.94060859
Br      -3.47986626      -6.70771244       8.33106438
O        4.73483373      -1.26940137       6.72645434
C        5.23417063      -2.03055125       5.89994343
C        4.86574066      -3.50997865       5.86923591
S        3.05715422      -3.70253289       5.89798442
C        2.66793648      -3.00017636       4.37469356
N        1.68778229      -2.05541648       4.28584808
H        1.16136028      -1.68758258       5.06510288
C        1.54971522      -1.73430496       2.96180601
C        0.70433439      -0.87466699       2.26289072
C        0.88073148      -0.88073148       0.88073148
C        1.85458988      -1.69610578       0.30923506
N        2.69436947      -2.51795786       0.98492785
C        2.51097313      -2.51675900       2.32441271
N        3.21871155      -3.27424555       3.21850830
N        6.16975239      -1.68032293       4.93836719
C        6.61266486      -0.37826447       4.60188855
C        5.99745397       0.77149999       5.11711296
C        6.42168921       2.05005136       4.74542643
C        7.47486148       2.19287687       3.85401505
C        8.10792686       1.06749077       3.33345092
C        7.68225239      -0.22736381       3.69057657
C        8.44733287      -1.39581111       3.12660112
H        5.29144289      -3.98456464       6.75861881
H        5.27593830      -4.01586269       4.99003663
H       -0.03971704      -0.26151477       2.75672101
H        1.99445084      -1.71522391      -0.76941791
H        6.56949179      -2.43867647       4.40212648
H        5.16039931       0.71265964       5.80564802
H        5.91755931       2.91958892       5.15860052
H        8.94050389       1.19436721       2.64447010
H        7.77298300      -2.15951978       2.72862334
H        9.08319300      -1.83305661       3.90336356
H        9.09253944      -1.08772979       2.29643777
C        7.91385569       3.50867431       3.46728362
C        8.28151334       4.61065466       3.14339604
Br       8.87598465       6.39246368       2.61969722
