130
Properties=species:S:1:pos:R:3 pbc="F F F"
C        1.79213768       1.79213768      -1.79213768
C        2.17042716       3.05640837      -1.34534029
C        2.97910609       3.85868273      -2.14945944
C        3.40428921       3.39660752      -3.39660787
C        3.02036679       2.12732485      -3.85626923
C        3.49173638       1.62167933      -5.19834772
S        5.08596092       0.75714004      -5.05233489
C        5.30595114       0.25214589      -6.68416113
N        6.39029522      -0.50708656      -7.01754393
H        7.10727762      -0.81004649      -6.37539955
C        6.30471502      -0.77783812      -8.35736510
C        7.09767959      -1.50034330      -9.24624542
C        6.62794606      -1.52519026     -10.55814302
Br       7.58969334      -2.46834666     -11.88147113
C        5.45155184      -0.85633834     -10.88727555
N        4.67771086      -0.15142326     -10.02762478
C        5.13640655      -0.13281996      -8.75676127
N        4.52994785       0.50197540      -7.70877362
C        2.21278701       1.32348121      -3.03687265
H        1.84386974       3.42331634      -0.37606584
H        3.28063987       4.84430954      -1.80428391
H        4.03979222       4.03266096      -4.01029611
H        3.58961600       2.46280160      -5.89483790
H        2.73908797       0.94340780      -5.61757682
H        8.00567314      -2.00437771      -8.93890311
H        5.07508435      -0.86880599     -11.90787868
H        1.91537006       0.33298651      -3.37343680
C       -1.79213768      -1.79213768      -1.79213768
C       -1.65286052      -1.74183203      -3.17748328
C       -2.45545833      -2.55060973      -3.98118020
C       -3.39493067      -3.40377715      -3.39879677
C       -3.54601556      -3.45358603      -2.00435928
C       -4.55158689      -4.38642916      -1.37374739
S       -3.82083576      -6.02150799      -1.05309209
C       -5.15190725      -6.80216936      -0.28818154
N       -5.00992716      -8.07500104       0.18417561
H       -4.16770829      -8.62731234       0.12238994
C       -6.20193924      -8.43609844       0.75379568
C       -6.65250633      -9.58727884       1.39620345
C       -7.97241480      -9.52818727       1.83970324
Br      -8.72872619     -11.00889343       2.73480182
C       -8.72707783      -8.37799680       1.62258558
N       -8.29460288      -7.25683611       0.99752661
C       -7.01362313      -7.31868393       0.57195921
N       -6.34883819      -6.31537820      -0.07648047
C       -2.72847165      -2.64182266      -1.20284656
H       -0.92407915      -1.08068885      -3.63848392
H       -2.34837088      -2.51846623      -5.06239620
H       -4.01023021      -4.03294265      -4.03957643
H       -5.41999542      -4.49264106      -2.03461902
H       -4.91388266      -3.95153413      -0.43465579
H       -6.02375586     -10.45718840       1.54074572
H       -9.75827796      -8.32022947       1.96435039
H       -2.82523564      -2.67641703      -0.12014069
C       -1.79213768       1.79213768       1.79213768
C       -1.71211510       1.68140046       3.17866026
C       -2.51451380       2.49012462       3.98260984
C       -3.39474004       3.40360985       3.39915470
C       -3.48619640       3.51469677       2.00306770
C       -4.42727762       4.51235629       1.37212952
S       -3.61986180       6.12736119       1.14821286
C       -4.88640052       6.99179923       0.36405841
N       -4.67487360       8.27538750      -0.04950851
H       -3.81473257       8.78967869       0.06821943
C       -5.82721065       8.70749815      -0.65046680
C       -6.20507353       9.90075436      -1.26224618
C       -7.50690618       9.91364004      -1.75964740
Br      -8.16658079      11.45846482      -2.62222780
C       -8.31475860       8.78781139      -1.62008094
N       -7.95305702       7.62595684      -1.02510147
C       -6.68924230       7.61813480      -0.54702924
N       -6.09191198       6.56345370       0.08533118
C       -2.66908396       2.70229007       1.20176684
H       -1.02964561       0.97310075       3.64050556
H       -2.45338847       2.41087114       5.06497371
H       -4.01054038       4.03174520       4.04046370
H       -5.31728003       4.62801751       2.00195797
H       -4.76751433       4.13022057       0.40233768
H       -5.53699932      10.74907355      -1.34587432
H       -9.33249003       8.78610948      -2.00444247
H       -2.71974441       2.78362430       0.11842465
C        1.79213768      -1.79213768       1.79213768
C        1.79800094      -3.17230919       1.60186569
C        2.60681109      -3.97578466       2.40465252
C        3.40390824      -3.39847673       3.39511962
C        3.39679282      -2.00967890       3.59748916
C        4.26932707      -1.38380962       4.65862675
S        5.91643218      -0.97838654       4.00061712
C        6.62043850      -0.23583013       5.38598953
N        7.87921131       0.28646222       5.30800350
H        8.46306132       0.27551423       4.48508360
C        8.17636633       0.82418168       6.53205735
C        9.28627423       1.49009418       7.04740166
C        9.16389605       1.88217815       8.37918092
Br      10.58268211       2.80089317       9.22102886
C        7.99636743       1.59653661       9.08265823
N        6.91515514       0.94835092       8.58710816
C        7.03823798       0.57283670       7.29494657
N        6.08385939      -0.08592665       6.57091082
C        2.58561368      -1.20793928       2.77958791
H        1.18069311      -3.62933593       0.83322287
H        2.61843874      -5.05276860       2.25802598
H        4.03399616      -4.03872920       4.01002393
H        4.36888024      -2.07209004       5.50628522
H        3.78743660      -0.47481227       5.03782371
H       10.17208743       1.68862887       6.45673998
H        7.88934617       1.89772517      10.12253604
H        2.57674622      -0.12899905       2.91604810
C       -0.00445707       0.01189536      -1.78238275
H       -0.66409135       0.67374010      -2.43557963
H        0.65740317      -0.63156657      -2.45157240
C       -0.90989263      -0.90692880      -0.91072765
C        0.90977584       0.90977584      -0.90977584
C       -0.00465871       1.77757030       0.00794375
H       -0.66225468       2.44313916      -0.64384735
H        0.64322798       2.43503045       0.67728295
C       -1.78241447       0.00034974      -0.00472694
H       -2.45427497      -0.65498947       0.64260836
H       -2.43311707       0.67328779      -0.65473579
C       -0.91132561       0.90220522       0.91563759
C       -0.01476271      -0.02253852       1.78660255
H       -0.67934791      -0.69751639       2.42135241
H        0.63392994       0.61504881       2.47327442
C        0.01484550      -1.77751727      -0.01636693
H        0.67870853      -2.42144646      -0.68295456
H       -0.62264859      -2.45592969       0.64226336
C        1.78714474       0.01002794       0.00389507
H        2.44202412       0.67113390       0.66197326
H        2.45385902      -0.65136977      -0.64189061
C        0.91606151      -0.90478549       0.90901405
