130
Properties=species:S:1:pos:R:3 pbc="F F F"
C        1.79143876       1.79143876      -1.79143876
C        2.92112526       2.40151203      -1.24949377
C        3.72612916       3.20965869      -2.05610828
C        3.40320965       3.41615533      -3.40602537
C        2.26725108       2.78672774      -3.93763553
C        1.46174526       1.97884183      -3.13217812
C        4.27617519       4.28412740      -4.27932844
S        5.59360674       3.31315584      -5.07460402
C        6.37102382       4.55274405      -5.98374627
N        7.47128547       4.25556793      -6.73484172
H        7.89236134       3.34198371      -6.81374010
C        7.87869669       5.41466383      -7.34059737
C        8.92339831       5.73404895      -8.20551321
C        8.97332959       7.07305813      -8.58962479
Br      10.33337288       7.66418725      -9.75843968
C        8.02123619       7.96911584      -8.10983358
N        7.00403769       7.66419226      -7.26914281
C        6.96108030       6.36527867      -6.89940338
N        6.03395547       5.81544020      -6.05914516
H        3.18350266       2.25537039      -0.20510021
H        4.60825279       3.67894074      -1.62482019
H        2.00334905       2.92388012      -4.98456751
H        0.58323301       1.50200007      -3.55919947
H        4.72143952       5.08327898      -3.67387116
H        3.65952087       4.76897517      -5.04607989
H        9.63945431       4.99839157      -8.55025240
H        8.04965618       9.01630338      -8.40283374
C       -1.79143876      -1.79143876      -1.79143876
C       -2.63168536      -2.73577608      -1.20466962
C       -3.43647675      -3.54348184      -2.01193754
C       -3.40145230      -3.41504940      -3.40888865
C       -2.55642836      -2.45270176      -3.98248423
C       -1.75137638      -1.64491389      -3.17647494
C       -4.27542449      -4.28318328      -4.28102325
S       -5.89786106      -3.51224925      -4.57125630
C       -6.61974577      -4.70655180      -5.58121658
N       -7.89926252      -4.53716710      -6.02526550
H       -8.48953208      -3.74725098      -5.81130210
C       -8.21268341      -5.62556586      -6.79570863
C       -9.35075764      -6.01101058      -7.50119225
C       -9.23812568      -7.22988916      -8.16799767
Br     -10.69700719      -7.89116691      -9.16782571
C       -8.05139202      -7.95498255      -8.09381105
N       -6.94248930      -7.58519560      -7.40968786
C       -7.05764381      -6.40354695      -6.76457159
N       -6.08041316      -5.82058357      -6.00754410
H       -2.66822923      -2.85104431      -0.12469972
H       -4.09203701      -4.27560324      -1.54437347
H       -2.52068656      -2.32802436      -5.06308577
H       -1.09968559      -0.90720042      -3.63754654
H       -4.41219840      -5.26183329      -3.80455797
H       -3.77342087      -4.46120006      -5.23995499
H      -10.25104713      -5.40970542      -7.52734573
H       -7.95144682      -8.90714165      -8.61020483
C       -1.79143876       1.79143876       1.79143876
C       -1.58419820       1.81867152       3.16926134
C       -2.39249848       2.62388264       3.97551500
C       -3.41463628       3.40116064       3.40959343
C       -3.60337163       3.36880114       2.01944158
C       -2.79608399       2.56410232       1.21257890
C       -4.28399651       4.27599863       4.27963590
S       -3.56778467       5.93706906       4.47651288
C       -4.77072391       6.66505127       5.47173896
N       -4.61204193       7.95212414       5.89752906
H       -3.82582941       8.54500844       5.67724731
C       -5.70257366       8.26705091       6.66433332
C       -6.09465499       9.40981059       7.35849489
C       -7.31272137       9.29660521       8.02668594
Br      -7.98055798      10.76011727       9.01532456
C       -8.03154470       8.10544488       7.96319603
N       -7.65520644       6.99191694       7.29024938
C       -6.47345858       7.10700142       6.64530236
N       -5.88205734       6.12381364       5.90266985
H       -0.79969116       1.21997417       3.62430793
H       -2.22071004       2.64128268       5.05002100
H       -4.38296973       3.97147773       1.55734922
H       -2.95855336       2.54794050       0.13793870
H       -4.40616334       3.80809553       5.26433080
H       -5.28414438       4.35441945       3.83601208
H       -5.49803073      10.31340479       7.37666276
H       -8.98341798       8.00529789       8.48007743
C        1.79143876      -1.79143876       1.79143876
C        1.63763263      -1.75838058       3.17611785
C        2.44596929      -2.56367370       3.98225313
C        3.41494767      -3.40137140       3.40907127
C        3.54998541      -3.42904937       2.01257957
C        2.74261657      -2.62433062       1.20581801
C        4.28412756      -4.27617544       4.27932803
S        3.51390397      -5.89917698       4.56828566
C        4.72664029      -6.63572126       5.54515259
N        4.53625747      -7.89853913       6.02689852
H        3.72013613      -8.46796884       5.85998018
C        5.64339583      -8.22686279       6.76369927
C        6.01896233      -9.35708132       7.48691683
C        7.26576000      -9.26665217       8.10360034
Br       7.91611601     -10.71684810       9.12303570
C        8.02606357      -8.10791960       7.96620245
N        7.66594511      -7.00670580       7.26472185
C        6.45625444      -7.09955975       6.66994816
N        5.87372509      -6.12267426       5.91214148
H        0.89481995      -1.11253078       3.63662253
H        2.31601239      -2.53366134       5.06233999
H        4.28746904      -4.07894599       1.54538165
H        2.86321618      -2.65521815       0.12599823
H        4.46251086      -3.77653274       5.23954606
H        5.26238420      -4.41056707       3.80162464
H        5.38976933     -10.23519285       7.56313610
H        9.00062330      -8.02578863       8.44238137
C       -0.00445707       0.01189536      -1.78238275
H       -0.66409135       0.67374010      -2.43557963
H        0.65740317      -0.63156657      -2.45157240
C       -0.90989263      -0.90692880      -0.91072765
C        0.90977584       0.90977584      -0.90977584
C       -0.00465871       1.77757030       0.00794375
H       -0.66225468       2.44313916      -0.64384735
H        0.64322798       2.43503045       0.67728295
C       -1.78241447       0.00034974      -0.00472694
H       -2.45427497      -0.65498947       0.64260836
H       -2.43311707       0.67328779      -0.65473579
C       -0.91132561       0.90220522       0.91563759
C       -0.01476271      -0.02253852       1.78660255
H       -0.67934791      -0.69751639       2.42135241
H        0.63392994       0.61504881       2.47327442
C        0.01484550      -1.77751727      -0.01636693
H        0.67870853      -2.42144646      -0.68295456
H       -0.62264859      -2.45592969       0.64226336
C        1.78714474       0.01002794       0.00389507
H        2.44202412       0.67113390       0.66197326
H        2.45385902      -0.65136977      -0.64189061
C        0.91606151      -0.90478549       0.90901405
