150
Properties=species:S:1:pos:R:3 pbc="F F F"
C        1.79143877       1.79143877      -1.79143877
C        3.03388871       1.32316963      -2.21558964
C        3.84435188       2.12652150      -3.02580555
C        3.41338025       3.40453826      -3.40770803
C        2.16194327       3.86372530      -2.96903669
C        1.35025131       3.05790094      -2.16594633
C        4.24141821       4.30950908      -4.26757130
O        3.90599369       5.48802862      -4.36350295
C        5.43175370       3.69971555      -4.98661698
S        6.33206550       4.91630353      -5.99390176
C        7.49800192       3.87656995      -6.71869050
N        8.45463326       4.39131154      -7.54421805
H        8.55767598       5.36795384      -7.77811191
C        9.21168127       3.34202852      -7.99348996
C       10.29976195       3.23715441      -8.85278497
C       10.76998623       1.93587235      -9.05595164
Br      12.24614785       1.71813280     -10.23017432
C       10.15467852       0.85138275      -8.40892203
C       10.62767277      -0.56052623      -8.61875379
N        9.09688584       0.97277871      -7.56627662
C        8.64652936       2.23006926      -7.38016894
N        7.58952492       2.57661747      -6.58588211
H        3.38245819       0.33578538      -1.92042450
H        4.80725060       1.72737064      -3.33243863
H        1.80922283       4.85357722      -3.25531226
H        0.38197521       3.42918865      -1.84010924
H        5.06332571       2.90103993      -5.63867274
H        6.13032450       3.29933964      -4.24654047
H       10.74327386       4.10134049      -9.33317969
H       11.67625213      -0.66557442      -8.32419729
H       10.50523242      -0.85351699      -9.66616917
H       10.04360083      -1.25918748      -8.00963562
C       -1.79143877      -1.79143877      -1.79143877
C       -3.04878034      -1.33754432      -2.18632332
C       -3.85935982      -2.14090247      -2.99641665
C       -3.41343234      -3.40463702      -3.40755719
C       -2.14700989      -3.84954322      -2.99815216
C       -1.33536681      -3.04357130      -2.19516047
C       -4.24071480      -4.30904574      -4.26873805
O       -3.88706117      -5.47980876      -4.39065533
C       -5.45344293      -3.70776950      -4.95687379
S       -6.35023728      -4.92245124      -5.96958227
C       -7.54596217      -3.89084253      -6.65645768
N       -8.50782454      -4.40793625      -7.47440206
H       -8.59831223      -5.38210441      -7.72332509
C       -9.29019056      -3.36439996      -7.89260924
C      -10.39455182      -3.26375388      -8.73139564
C      -10.89020593      -1.96751798      -8.90408631
Br     -12.38987998      -1.75539331     -10.04918168
C      -10.28230609      -0.88370346      -8.24897374
C      -10.78272000       0.52319222      -8.42637255
N       -9.20823100      -1.00110667      -7.42660350
C       -8.73347897      -2.25341736      -7.26987123
N       -7.65720851      -2.59510062      -6.49971538
H       -3.40889811      -0.36146539      -1.86830456
H       -4.83403315      -1.75327703      -3.27974969
H       -1.78254723      -4.82816821      -3.30739688
H       -0.35545886      -3.40357459      -1.89223964
H       -5.10991063      -2.89191742      -5.60121033
H       -6.14583327      -3.33210735      -4.19826399
H      -10.83156733      -4.12719155      -9.21903517
H      -11.82769336       0.60513005      -8.11231170
H      -10.68334847       0.83596801      -9.47050414
H      -10.20015894       1.22139529      -7.81528532
C       -1.79143877       1.79143877       1.79143877
C       -1.23286837       2.87906493       2.46071469
C       -2.03735925       3.69148096       3.26783872
C       -3.40337886       3.41139243       3.41085525
C       -3.95022740       2.31025328       2.73422459
C       -3.14749487       1.50386236       1.92274134
C       -4.31002240       4.24229830       4.26617789
O       -5.42787523       3.80285921       4.52679082
C       -3.79233883       5.59055865       4.73518874
S       -5.00434692       6.48301810       5.75490578
C       -4.14291929       7.95466455       5.99567853
N       -4.67287195       8.93737565       6.77991526
H       -5.55782876       8.88322130       7.26269167
C       -3.79529819       9.98882351       6.76307805
C       -3.79157336      11.25032717       7.34780079
C       -2.67539022      12.03790820       7.04851181
Br      -2.61227775      13.77918183       7.80299539
C       -1.65865154      11.53876116       6.21757060
C       -0.45376713      12.36670422       5.86542898
N       -1.67478519      10.30049358       5.66066241
C       -2.75692262       9.54983267       5.95001227
N       -2.98136537       8.28347536       5.48718378
H       -0.17270887       3.10285942       2.36309977
H       -1.56403241       4.52720310       3.77582436
H       -5.00940898       2.07640030       2.83230303
H       -3.59029733       0.65820008       1.40277569
H       -3.55968862       6.19259544       3.85075432
H       -2.89563516       5.43816301       5.34240644
H       -4.59906543      11.59663578       7.98209284
H        0.09208313      12.65951735       6.76744079
H       -0.75258416      13.25893320       5.30636724
H        0.23665223      11.79676322       5.23393797
C        1.79143877      -1.79143877       1.79143877
C        1.20289573      -2.68185242       2.68789983
C        2.00673907      -3.49375408       3.49618579
C        3.40346314      -3.41023343       3.41192998
C        3.98119250      -2.50576446       2.50774831
C        3.17760204      -1.70061104       1.69588550
C        4.31227930      -4.24952650       4.25669279
O        5.50520350      -3.95626381       4.29605795
C        3.69843544      -5.42800687       4.99164392
S        4.92333155      -6.35263619       5.96630306
C        3.92148032      -7.62945255       6.54232950
N        4.43038320      -8.56899425       7.39078540
H        5.37823148      -8.58775818       7.73775207
C        3.42893971      -9.46606642       7.65219362
C        3.34763878     -10.62314473       8.41891782
C        2.10420704     -11.26269430       8.39490888
Br       1.92714299     -12.85791127       9.40940070
C        1.04729954     -10.72811817       7.63956558
C       -0.29645876     -11.40058639       7.58177269
N        1.14193751      -9.59200604       6.90199762
C        2.34560610      -8.98470049       6.92646096
N        2.66239028      -7.84057807       6.24905615
H        0.12010879      -2.75118252       2.76737676
H        1.51033560      -4.17199879       4.18472548
H        5.06442798      -2.42637353       2.42731081
H        3.64359628      -1.00953669       0.99814013
H        3.25494103      -6.09917831       4.24891904
H        2.93384079      -5.06052578       5.68183804
H        4.18974734     -11.00203672       8.98600998
H       -0.73132923     -11.48379074       8.58241351
H       -0.20810540     -12.39432310       7.13166690
H       -0.99382068     -10.82031754       6.96755210
C       -0.00445707       0.01189536      -1.78238275
H       -0.66409135       0.67374010      -2.43557963
H        0.65740317      -0.63156657      -2.45157240
C       -0.90989263      -0.90692880      -0.91072765
C        0.90977584       0.90977584      -0.90977584
C       -0.00465871       1.77757030       0.00794375
H       -0.66225468       2.44313916      -0.64384735
H        0.64322798       2.43503045       0.67728295
C       -1.78241447       0.00034974      -0.00472694
H       -2.45427497      -0.65498947       0.64260836
H       -2.43311707       0.67328779      -0.65473579
C       -0.91132561       0.90220522       0.91563759
C       -0.01476271      -0.02253852       1.78660255
H       -0.67934791      -0.69751639       2.42135241
H        0.63392994       0.61504881       2.47327442
C        0.01484550      -1.77751727      -0.01636693
H        0.67870853      -2.42144646      -0.68295456
H       -0.62264859      -2.45592969       0.64226336
C        1.78714474       0.01002794       0.00389507
H        2.44202412       0.67113390       0.66197326
H        2.45385902      -0.65136977      -0.64189061
C        0.91606151      -0.90478549       0.90901405
