158
Properties=species:S:1:pos:R:3 pbc="F F F"
C        1.79143877       1.79143877      -1.79143877
C        3.03388871       1.32316963      -2.21558964
C        3.84435188       2.12652150      -3.02580555
C        3.41338025       3.40453826      -3.40770803
C        2.16194327       3.86372530      -2.96903669
C        1.35025131       3.05790094      -2.16594633
C        4.24141821       4.30950908      -4.26757130
O        3.90599369       5.48802862      -4.36350295
C        5.43175370       3.69971555      -4.98661698
S        6.33206550       4.91630353      -5.99390176
C        7.49800192       3.87656995      -6.71869050
N        8.45463326       4.39131154      -7.54421805
H        8.55767598       5.36795384      -7.77811191
C        9.21168127       3.34202852      -7.99348996
C       10.29976195       3.23715441      -8.85278497
C       10.76998623       1.93587235      -9.05595164
C       10.15467852       0.85138275      -8.40892203
C       10.62767277      -0.56052623      -8.61875379
N        9.09688584       0.97277871      -7.56627662
C        8.64652936       2.23006926      -7.38016894
N        7.58952492       2.57661747      -6.58588211
H        3.38245819       0.33578538      -1.92042450
H        4.80725060       1.72737064      -3.33243863
H        1.80922283       4.85357722      -3.25531226
H        0.38197521       3.42918865      -1.84010924
H        5.06332571       2.90103993      -5.63867274
H        6.13032450       3.29933964      -4.24654047
H       10.74327386       4.10134049      -9.33317969
H       11.67625213      -0.66557442      -8.32419729
H       10.50523242      -0.85351699      -9.66616917
H       10.04360083      -1.25918748      -8.00963562
C       11.88949617       1.77074031      -9.94647335
C       12.82708574       1.63244222     -10.69228527
Br      14.34308879       1.40882590     -11.89820008
C       -1.79143877      -1.79143877      -1.79143877
C       -3.03588134      -1.32500911      -2.21175753
C       -3.84635987      -2.12836157      -3.02195750
C       -3.41338732      -3.40455099      -3.40768823
C       -2.15994550      -3.86191094      -2.97284882
C       -1.34825971      -3.05606730      -2.16977157
C       -4.24132451      -4.30945023      -4.26772386
O       -3.90347993      -5.48699703      -4.36704831
C       -5.43463084      -3.70072021      -4.98273518
S       -6.33447486      -4.91706726      -5.99072867
C       -7.50435709      -3.87833179      -6.71057350
N       -8.46168314      -4.39336893      -7.53511078
H       -8.56306466      -5.36971407      -7.77096300
C       -9.22208254      -3.34478361      -7.98033361
C      -10.31231934      -3.24042738      -8.83695462
C      -10.78590839      -1.93975173      -9.03615010
C      -10.17157931      -0.85533545      -8.38806853
C      -10.64820079       0.55597526      -8.59367479
N       -9.11163073      -0.97624412      -7.54806632
C       -8.65804605      -2.23293487      -7.36578664
N       -7.59849039      -2.57888822      -6.57464590
H       -3.38599640      -0.33907188      -1.91359979
H       -4.81083445      -1.73068590      -3.32553952
H       -1.80565406      -4.85032640      -3.26213185
H       -0.37842705      -3.42591087      -1.84693518
H       -5.06945389      -2.89976347      -5.63382101
H       -6.13243435      -3.30356870      -4.24020156
H      -10.75497272      -4.10452882      -9.31829250
H      -11.69634941       0.65801246      -8.29653807
H      -10.52876539       0.85158264      -9.64070185
H      -10.06432908       1.25457990      -7.98429979
C      -11.90777915      -1.77513848      -9.92379220
C      -12.84734590      -1.63727488     -10.66719245
Br     -14.36654588      -1.41436110     -11.86920779
C       -1.79143877       1.79143877       1.79143877
C       -1.22974440       2.86958736       2.47331623
C       -2.03419501       3.68198280       3.28050112
C       -3.40337519       3.41133484       3.41091651
C       -3.95339501       2.31964000       2.72167025
C       -3.15062307       1.51331616       1.91015936
C       -4.31020226       4.24263725       4.26565908
O       -5.43335306       3.80983907       4.51433312
C       -3.78585927       5.58324951       4.74897744
S       -4.99882830       6.47719685       5.76624565
C       -4.12806163       7.94028527       6.02491547
N       -4.65651290       8.92102700       6.81262295
H       -5.54554820       8.87000055       7.28819298
C       -3.77082808       9.96578537       6.81058630
C       -3.76196727      11.22271887       7.40501519
C       -2.63752849      12.00394684       7.12033489
C       -1.61826584      11.50334986       6.29336759
C       -0.40441574      12.32465840       5.95682618
N       -1.63957136      10.26953411       5.72683570
C       -2.72960783       9.52503791       6.00212182
N       -2.96014911       8.26401904       5.52785636
H       -0.16718595       3.08595249       2.38552963
H       -1.55842199       4.51013072       3.79850717
H       -5.01505601       2.09320591       2.80985040
H       -3.59585721       0.67508521       1.38033068
H       -3.54181408       6.19021682       3.87100747
H       -2.89504750       5.41932014       5.36183698
H       -4.57164934      11.57037785       8.03576686
H        0.13669508      12.60636054       6.86520954
H       -0.69209446      13.22340666       5.40238348
H        0.28647039      11.75426011       5.32625925
C       -2.58398336      13.31969802       7.70302844
C       -2.53913932      14.42163962       8.19103429
Br      -2.46663030      16.20338600       8.98009847
C        1.79143877      -1.79143877       1.79143877
C        1.20333207      -2.65905238       2.71026353
C        2.00712176      -3.47088498       3.51867220
C        3.40349076      -3.41010382       3.41203196
C        3.98088029      -2.52838888       2.48543610
C        3.17718645      -1.72336092       1.67355121
C        4.31237476      -4.25038167       4.25574216
O        5.51006112      -3.97490851       4.27255563
C        3.69213700      -5.40804899       5.01790023
S        4.91773156      -6.33653219       5.98800704
C        3.90564929      -7.58895832       6.59865476
N        4.41325361      -8.52326521       7.45364403
H        5.36592549      -8.55133158       7.78648466
C        3.40249077      -9.40079933       7.74390966
C        3.31548376     -10.54476600       8.52945157
C        2.06230075     -11.16543787       8.53407160
C        1.00212480     -10.62618011       7.78667838
C       -0.35237801     -11.27873341       7.75954492
N        1.10259637      -9.50293862       7.03040618
C        2.31554484      -8.91388587       7.02733685
N        2.63915593      -7.78513709       6.32773148
H        0.12096850      -2.71053889       2.80716068
H        1.51114918      -4.13093791       4.22497279
H        5.06382969      -2.46686528       2.38741735
H        3.64280953      -1.05015362       0.95830995
H        3.22719185      -6.08348659       4.29235994
H        2.94387462      -5.01847604       5.71385395
H        4.16037445     -10.92792444       9.08949516
H       -0.77304141     -11.34010931       8.76780711
H       -0.28598381     -12.28040255       7.32346586
H       -1.05023404     -10.69718009       7.14710292
C        1.92156648     -12.36126089       9.32388245
C        1.80370153     -13.36276266       9.98534904
Br       1.61312387     -14.98210633      11.05488457
C       -0.00445707       0.01189536      -1.78238275
H       -0.66409135       0.67374010      -2.43557963
H        0.65740317      -0.63156657      -2.45157240
C       -0.90989263      -0.90692880      -0.91072765
C        0.90977584       0.90977584      -0.90977584
C       -0.00465871       1.77757030       0.00794375
H       -0.66225468       2.44313916      -0.64384735
H        0.64322798       2.43503045       0.67728295
C       -1.78241447       0.00034974      -0.00472694
H       -2.45427497      -0.65498947       0.64260836
H       -2.43311707       0.67328779      -0.65473579
C       -0.91132561       0.90220522       0.91563759
C       -0.01476271      -0.02253852       1.78660255
H       -0.67934791      -0.69751639       2.42135241
H        0.63392994       0.61504881       2.47327442
C        0.01484550      -1.77751727      -0.01636693
H        0.67870853      -2.42144646      -0.68295456
H       -0.62264859      -2.45592969       0.64226336
C        1.78714474       0.01002794       0.00389507
H        2.44202412       0.67113390       0.66197326
H        2.45385902      -0.65136977      -0.64189061
C        0.91606151      -0.90478549       0.90901405
