137
Properties=species:S:1:pos:R:3 pbc="F F F"
C        0.00000000       0.00000000       0.00000000
C        0.88153475       0.88153475      -0.88153475
C        2.12398469       0.41326561      -1.30568562
C        2.93444786       1.21661748      -2.11590153
C        2.50347623       2.49463423      -2.49780401
C        1.25203924       2.95382128      -2.05913267
C        0.44034729       2.14799692      -1.25604230
C        3.33151419       3.39960506      -3.35766727
O        2.99608967       4.57812459      -3.45359893
C        4.52184968       2.78981152      -4.07671295
S        5.42216147       4.00639951      -5.08399774
C        6.58809789       2.96666593      -5.80878648
N        7.54472923       3.48140752      -6.63431402
H        7.64777196       4.45804981      -6.86820788
C        8.30177725       2.43212450      -7.08358593
C        9.38985793       2.32725039      -7.94288094
C        9.86008220       1.02596833      -8.14604762
C        9.24477450      -0.05852128      -7.49901800
C        9.71776874      -1.47043026      -7.70884977
N        8.18698181       0.06287469      -6.65637260
C        7.73662533       1.32016524      -6.47026491
N        6.67962090       1.66671345      -5.67597808
H        2.47255417      -0.57411865      -1.01052047
H        3.89734658       0.81746662      -2.42253460
H        0.89931881       3.94367319      -2.34540824
H       -0.52792882       2.51928463      -0.93020522
H        4.15342169       1.99113591      -4.72876871
H        5.22042048       2.38943562      -3.33663645
H        9.83336984       3.19143647      -8.42327567
H       10.76634811      -1.57547844      -7.41429327
H        9.59532839      -1.76342101      -8.75626514
H        9.13369680      -2.16909151      -7.09973160
C       10.97959214       0.86083628      -9.03656932
C       11.91718172       0.72253819      -9.78238125
Br      13.43318476       0.49892188     -10.98829605
C       -0.88153475      -0.88153475      -0.88153475
C       -2.10351842      -0.39571613      -1.34370136
C       -2.91382716      -1.19906596      -2.15407374
C       -2.50340217      -2.49451109      -2.49800121
C       -1.27255097      -2.97112327      -2.02131895
C       -0.46080181      -2.16548937      -1.21809533
C       -3.33246988      -3.40015931      -3.35615732
O       -3.02159528      -4.58762713      -3.41859078
C       -4.49269997      -2.78066129      -4.11501288
S       -5.39776981      -3.99949764      -5.11529127
C       -6.52382156      -2.95093771      -5.88879103
N       -7.47340160      -3.46295059      -6.72409859
H       -7.59320604      -4.44210244      -6.93872118
C       -8.19660985      -2.40764194      -7.21323588
C       -9.26290284      -2.29821462      -8.09887180
C       -9.69917500      -0.99180506      -8.34111808
C       -9.07401749       0.09316565      -7.70441938
C       -9.51042482       1.51005848      -7.95582192
N       -8.03800288      -0.03248375      -6.83574247
C       -7.62022471      -1.29487023      -6.61196055
N       -6.58899620      -1.64663031      -5.78668592
H       -2.43620848       0.60547870      -1.07822622
H       -3.86053533      -0.78583573      -2.49097674
H       -0.93596293      -3.97467596      -2.27776135
H        0.49148523      -2.55055674      -0.86248952
H       -4.09216410      -2.00513894      -4.77602327
H       -5.19819587      -2.34848795      -3.39980872
H       -9.71506064      -3.16302181      -8.56999953
H      -10.56260018       1.64472996      -7.68729272
H       -9.35843056       1.77666650      -9.00640847
H       -8.92432756       2.20922611      -7.34923544
C      -10.79484058      -0.82216059      -9.25999658
C      -11.71246050      -0.68008333     -10.02955733
Br     -13.19617430      -0.45035643     -11.27387196
C       -0.88153475       0.88153475       0.88153475
C       -0.31538006       1.94491963       1.58263622
C       -1.11977014       2.75728201       2.38991471
C       -2.49346732       2.50134156       2.50110559
C       -3.04802026       1.42436036       1.79261258
C       -2.24518647       0.61813915       0.98106088
C       -3.40056119       3.33326327       3.35496206
O       -4.53155726       2.91090259       3.58535334
C       -2.86633607       4.66183840       3.86019968
S       -4.08071961       5.55811754       4.87372157
C       -3.19602988       7.00768048       5.15983994
N       -3.72226049       7.98532905       5.95286124
H       -4.61739435       7.93926587       6.41736943
C       -2.82446118       9.01949092       5.97353558
C       -2.80793933      10.26919713       6.58285280
C       -1.67115656      11.04034508       6.32059651
C       -0.64810534      10.53742851       5.49973737
C        0.57915832      11.34820017       5.18714640
N       -0.67712990       9.31065794       4.91844126
C       -1.77897463       8.57593958       5.17214128
N       -2.01861533       7.32336593       4.68033118
H        0.75059902       2.14971314       1.50984187
H       -0.64050909       3.57363267       2.92320605
H       -4.11322438       1.20948405       1.86569182
H       -2.69389090      -0.20851615       0.43618628
H       -2.60484479       5.27609841       2.99238310
H       -1.98481264       4.48023110       4.48144881
H       -3.62090592      10.61901163       7.20816443
H        1.11274300      11.61284442       6.10506151
H        0.30858337      12.25670805       4.64004785
H        1.27073946      10.77708010       4.55799625
C       -1.60913022      12.34846948       6.91939805
C       -1.55718316      13.44402367       7.42089433
Br      -1.47318915      15.21544213       8.23177142
C        0.88153475      -0.88153475       0.88153475
C        0.48507025      -2.18587972       1.17198595
C        1.29097523      -2.99854364       1.97744799
C        2.49397411      -2.50290721       2.49903315
C        2.87743788      -1.18619736       2.20135795
C        2.07550926      -0.37786350       1.39101374
C        3.39216020      -3.32509677       3.37152955
O        4.29783668      -2.75448371       3.97549281
C        3.13652527      -4.82071418       3.43113470
S        4.30816419      -5.68228024       4.52211429
C        3.79981050      -7.30626191       4.25747789
N        4.39047294      -8.32833643       4.94164141
H        5.12529167      -8.22292916       5.62580882
C        3.81460402      -9.49346365       4.50942001
C        4.00414491     -10.83532773       4.82051662
C        3.19201304     -11.72719559       4.11288952
C        2.26495623     -11.24759370       3.17272129
C        1.38851165     -12.18215402       2.38552259
N        2.08747334      -9.93216982       2.88658595
C        2.87811997      -9.07956997       3.56936554
N        2.87366370      -7.72000246       3.42864627
H       -0.44959855      -2.57988951       0.77866503
H        0.94560054      -4.00779701       2.18395026
H        3.80864660      -0.78292695       2.59682670
H        2.39176963       0.63784573       1.16763712
H        3.23242172      -5.22340023       2.41750436
H        2.12970423      -4.99653408       3.82025423
H        4.73320791     -11.16236461       5.55250945
H        0.76627759     -12.78492326       3.05396208
H        1.99716860     -12.83692686       1.75407707
H        0.71593594     -11.62056762       1.72783334
C        3.35634752     -13.13070307       4.38994715
C        3.49397765     -14.30614059       4.62198292
Br       3.71651393     -16.20672363       4.99716513
