129
Properties=species:S:1:pos:R:3 pbc="F F F"
C        0.00000000       0.00000000       0.00000000
C        0.88153475       0.88153475      -0.88153475
C        2.12398469       0.41326561      -1.30568562
C        2.93444786       1.21661748      -2.11590153
C        2.50347623       2.49463423      -2.49780401
C        1.25203924       2.95382128      -2.05913267
C        0.44034729       2.14799692      -1.25604230
C        3.33151419       3.39960506      -3.35766727
O        2.99608967       4.57812459      -3.45359893
C        4.52184968       2.78981152      -4.07671295
S        5.42216147       4.00639951      -5.08399774
C        6.58809789       2.96666593      -5.80878648
N        7.54472923       3.48140752      -6.63431402
H        7.64777196       4.45804981      -6.86820788
C        8.30177725       2.43212450      -7.08358593
C        9.38985793       2.32725039      -7.94288094
C        9.86008220       1.02596833      -8.14604762
Br      11.33624382       0.80822878      -9.32027029
C        9.24477450      -0.05852128      -7.49901800
C        9.71776874      -1.47043026      -7.70884977
N        8.18698181       0.06287469      -6.65637260
C        7.73662533       1.32016524      -6.47026491
N        6.67962090       1.66671345      -5.67597808
H        2.47255417      -0.57411865      -1.01052047
H        3.89734658       0.81746662      -2.42253460
H        0.89931881       3.94367319      -2.34540824
H       -0.52792882       2.51928463      -0.93020522
H        4.15342169       1.99113591      -4.72876871
H        5.22042048       2.38943562      -3.33663645
H        9.83336984       3.19143647      -8.42327567
H       10.76634811      -1.57547844      -7.41429327
H        9.59532839      -1.76342101      -8.75626514
H        9.13369680      -2.16909151      -7.09973160
C       -0.88153475      -0.88153475      -0.88153475
C       -2.11456990      -0.40489881      -1.32346720
C       -2.92496131      -1.20824887      -2.13375668
C       -2.50344249      -2.49457591      -2.49789607
C       -1.26147652      -2.96207194      -2.04144473
C       -0.44975693      -2.15633683      -1.23829275
C       -3.33195529      -3.39987102      -3.35696022
O       -3.00789110      -4.58273483      -3.43718727
C       -4.50835266      -2.78534681      -4.09467468
S       -5.41086337      -4.00301853      -5.09867682
C       -6.55831178      -2.95891312      -5.84632540
N       -7.51168105      -3.47233236      -6.67643737
H       -7.62250009      -4.45024770      -6.90128187
C       -8.25303499      -2.42002816      -7.14442453
C       -9.33101479      -2.31289206      -8.01608242
C       -9.78548780      -1.00901057      -8.23759978
Br     -11.24706993      -0.78829869      -9.42937427
C       -9.16560494       0.07575983      -7.59542611
C       -9.62162257       1.49021526      -7.82478094
N       -8.11791033      -0.04775709      -6.74056168
C       -7.68266679      -1.30762461      -6.53676408
N       -6.63761318      -1.65676666      -5.72793260
H       -2.45583569       0.58906845      -1.04218875
H       -3.88041323      -0.80238687      -2.45454770
H       -0.91617796      -3.95845662      -2.31376567
H        0.51116436      -2.53419361      -0.89853178
H       -4.12487397      -1.99738237      -4.75106997
H       -5.21031802      -2.37005496      -3.36611956
H       -9.77854154      -3.17741811      -8.49212233
H      -10.67203723       1.60917532      -7.54230103
H       -9.48530063       1.77096188      -8.87383378
H       -9.03661215       2.18912587      -7.21685062
C       -0.88153475       0.88153475       0.88153475
C       -0.31797973       1.95371771       1.57123847
C       -1.12240556       2.76609994       2.37846136
C       -2.49346935       2.50139469       2.50105044
C       -3.04537936       1.41564499       1.80396885
C       -2.24258249       0.60936288       0.99244114
C       -3.40040696       3.33294711       3.35543244
O       -4.52678642       2.90435314       3.59667363
C       -2.87200022       4.66871321       3.84766073
S       -4.08555265       5.56360075       4.86340532
C       -3.20907025       7.02125179       5.13322827
N       -3.73660723       8.00074730       5.92309625
H       -4.62814340       7.95171333       6.39417292
C       -2.84595246       9.04124919       5.93028603
C       -2.83394722      10.29527788       6.53076416
C       -1.70444638      11.07245916       6.25519262
Br      -1.62925428      12.80333977       7.03214884
C       -0.68363229      10.57093365       5.43070528
C        0.53571731      11.38801354       5.10389202
N       -0.70810537       9.33994881       4.85817492
C       -1.80298460       8.59937846       5.12469243
N       -2.03726028       7.34175350       4.64329865
H        0.74600637       2.16540685       1.48955552
H       -0.64517676       3.58948069       2.90269035
H       -4.10851792       1.19388094       1.88600139
H       -2.68926454      -0.22419058       0.45648707
H       -2.62086178       5.27868304       2.97378149
H       -1.98492578       4.49759915       4.46396761
H       -3.64497473      10.64380037       7.15930687
H        1.07380760      11.66278707       6.01618347
H        0.25498526      12.29076229       4.55239550
H        1.22688889      10.81732495       4.47390083
C        0.88153475      -0.88153475       0.88153475
C        0.49843530      -2.19456938       1.14993123
C        1.30443432      -3.00722638       1.95530617
C        2.49402559      -2.50297181       2.49891707
C        2.86405810      -1.17764768       2.22328741
C        2.06215433      -0.36920493       1.41302724
C        3.39154995      -3.32483848       3.37239808
O        4.28182657      -2.75053161       3.99545501
C        3.15473353      -4.82428011       3.40936051
S        4.32336095      -5.68484441       4.50435336
C        3.83972821      -7.31165141       4.21217067
N        4.43482213      -8.33487504       4.89075361
H        5.15931441      -8.22894753       5.58576771
C        3.87985109      -9.50158589       4.43605070
C        4.08288222     -10.84484415       4.73226289
C        3.29166966     -11.73779037       4.00263811
Br       3.52779222     -13.59009185       4.34685882
C        2.37062918     -11.25794171       3.05670033
C        1.51669905     -12.19336295       2.24612625
N        2.17967755      -9.94128983       2.78526172
C        2.95024214      -9.08755745       3.48925589
N        2.92983537      -7.72643775       3.36603931
H       -0.42585364      -2.59542933       0.73938030
H        0.96964278      -4.02346312       2.14424191
H        3.78473882      -0.76760137       2.63606005
H        2.36796977       0.65333155       1.20692281
H        3.26895090      -5.21241548       2.39195992
H        2.14536050      -5.01814234       3.78298970
H        4.80665387     -11.17198710       5.46944100
H        0.89382443     -12.81279179       2.89854672
H        2.14195484     -12.83192274       1.61429495
H        0.84538170     -11.63195237       1.58700283
