198
Properties=species:S:1:pos:R:3 pbc="F F F"
N        5.06380904       0.01549593      -5.02076915
C        5.57541477       0.65580225      -4.20053772
C        6.20521925       1.45785595      -3.19516426
C        5.47283292       2.28495946      -2.41744238
C        4.01580900       2.44367710      -2.50758584
C        3.18073033       1.64855886      -1.71368187
C        1.79477291       1.79477291      -1.79477291
C        1.24776328       2.73070701      -2.67155217
O       -0.11141860       2.89493478      -2.75740130
C        2.07429164       3.51368540      -3.48918076
O        1.41498119       4.39116648      -4.31361908
C        2.14303734       4.84718511      -5.44937971
C        3.46090750       3.37669707      -3.39608026
C        7.62845173       1.40561523      -2.97978618
S        8.64429357       0.36372081      -3.93600781
C       10.02162045       0.87368685      -3.06602766
C        9.66165837       1.78776668      -2.10166802
N        8.30957394       2.10790839      -2.08355413
C       10.54610674       2.44520325      -1.17406015
C       10.28470004       3.68385215      -0.71460078
C       11.17484124       4.36671779       0.20939753
C       10.92211914       5.65859450       0.67672571
C       11.82348036       6.26419030       1.55766763
C       12.97349035       5.59354342       1.97868441
C       13.22756312       4.30476568       1.51323126
C       12.32350863       3.71216279       0.63440813
O       12.61312727       2.41591905       0.18352467
C       11.77610985       1.73288582      -0.69613984
O       12.06154808       0.59134081      -1.04597350
H        5.94196021       2.89438551      -1.64633432
H        3.60695160       0.91661395      -1.03115236
H       -0.24933801       3.59701657      -3.42227744
H        1.44531835       5.38643652      -6.09697054
H        2.55166363       4.00854371      -6.02288554
H        2.93125963       5.54631598      -5.15472929
H        4.12451378       3.99189379      -3.99560738
H       10.99914324       0.47545412      -3.30259334
H        9.39447790       4.21691335      -1.03788274
H       10.03180831       6.19491414       0.35822469
H       13.67341684       6.06527262       2.66386429
H       14.11801675       3.76960740       1.83138930
C       11.56374954       7.59743566       2.03578553
C       11.34622499       8.71402864       2.43620926
Br      10.99450618      10.51946506       3.08366058
N       -0.01585628      -5.08979950      -4.99441834
C       -0.63767642      -4.26806090      -5.52601742
C       -1.41703081      -3.26064236      -6.18056628
C       -2.24321027      -2.46160722      -5.47041728
C       -2.42306829      -2.52936645      -4.01463721
C       -1.62851323      -1.73490832      -3.17954950
C       -1.79477291      -1.79477291      -1.79477291
C       -2.75016231      -2.65100699      -1.24885317
O       -2.93413216      -2.71575363       0.10896831
C       -3.53302559      -3.46923268      -2.07489953
O       -4.43078291      -4.27237823      -1.41660561
C       -4.89250467      -5.41178096      -2.13531654
C       -3.37581441      -3.39724390      -3.46062652
C       -1.34235555      -3.06574805      -7.60574955
S       -0.30002474      -4.05011503      -8.59388242
C       -0.77900328      -3.19241972      -9.98991196
C       -1.68446351      -2.21075553      -9.65587403
N       -2.02277959      -2.16952554      -8.30873133
C       -2.31682459      -1.28659494     -10.56195062
C       -3.55244376      -0.80666386     -10.32404536
C       -4.21020129       0.11415663     -11.23611685
C       -5.49881035       0.60256239     -11.00773996
C       -6.07975613       1.47912265     -11.92936955
C       -5.38767697       1.87494901     -13.07562139
C       -4.10212183       1.38844157     -13.30541728
C       -3.53417395       0.51421468     -12.38130401
O       -2.24046627       0.04167935     -12.64673473
C       -1.58120030      -0.83555442     -11.78838078
O       -0.44081843      -1.20488606     -12.05315789
H       -2.83541772      -1.68881604      -5.95844628
H       -0.88141849      -1.06842381      -3.60487561
H       -3.64718298      -3.36899283       0.24621981
H       -5.45017013      -6.04220451      -1.43635078
H       -4.05638524      -6.00230859      -2.52439905
H       -5.57664176      -5.11855390      -2.93710924
H       -3.99013204      -3.99744504      -4.12443787
H       -0.37076027      -3.44793564     -10.95849479
H       -4.10205661      -1.11025618      -9.43696119
H       -6.05161598       0.30379588     -10.12067766
H       -5.84024924       2.55674634     -13.79132227
H       -3.55048015       1.68687907     -14.19263377
C       -7.40967226       1.97897885     -11.69470626
C       -8.52347703       2.39760841     -11.49817575
Br     -10.32440513       3.07449700     -11.18040254
N       -0.71741895       6.46878728       2.91386788
C       -0.76892383       5.80184039       3.86099052
C       -0.84603867       4.98059781       5.03160298
C       -1.43119679       3.76393046       4.98010752
C       -2.02202444       3.17182355       3.77322395
C       -1.23883960       2.36063093       2.94350052
C       -1.79477291       1.79477291       1.79477291
C       -3.12892228       2.04483614       1.47626404
O       -3.69468929       1.48938045       0.35684774
C       -3.91430308       2.87617321       2.28668151
O       -5.20799705       3.04995990       1.86180981
C       -5.87745663       4.20524221       2.35690332
C       -3.36094725       3.42938244       3.44335515
C       -0.30250681       5.42045555       6.29089080
S        0.47129953       6.97290599       6.44241573
C        0.80010752       6.67133185       8.09011063
C        0.32669260       5.42932915       8.44845651
N       -0.32618522       4.74325366       7.43159758
C        0.41298169       4.82512656       9.75322528
C       -0.52679266       3.96548867      10.19087165
C       -0.46222413       3.35955592      11.51038146
C       -1.44178033       2.48168903      11.98051855
C       -1.32620461       1.93954394      13.26425448
C       -0.24246846       2.26270908      14.08317181
C        0.73561984       3.13866187      13.61605551
C        0.60904345       3.67412599      12.33618075
O        1.60992518       4.55494507      11.90050175
C        1.57966184       5.14567135      10.63912600
O        2.49000569       5.89388483      10.29498323
H       -1.48940024       3.12972340       5.86355640
H       -0.19726946       2.16710231       3.19034615
H       -4.62075300       1.79978614       0.34941686
H       -6.81640867       4.30756921       1.80474753
H       -5.28741047       5.11145998       2.18422244
H       -6.12549690       4.09055571       3.41625228
H       -3.95560602       4.05187971       4.10452922
H        1.31938802       7.40656384       8.69001488
H       -1.37651551       3.70910063       9.56365784
H       -2.29227430       2.22023362      11.35598985
H       -0.15350729       1.84035044      15.08096744
H        1.58501204       3.40014079      14.24110610
C       -2.33860693       1.03760954      13.74918321
C       -3.18649388       0.28223948      14.15531101
Br      -4.55745536      -0.93913002      14.81198533
N        6.57900891      -0.93342423       2.58764098
C        6.40751717      -1.95589029       2.06834729
C        6.19430973      -3.22459335       1.43933638
C        4.96551042      -3.78597605       1.42374829
C        3.76492807      -3.18435259       2.01779128
C        2.93759879      -2.36954416       1.23582811
C        1.79477291      -1.79477291       1.79477291
C        1.48495709      -2.03170727       3.13335810
O        0.36092728      -1.48321923       3.69677097
C        2.32043304      -2.82519919       3.93152557
O        1.91092297      -2.97578562       5.23305817
C        2.91887352      -3.35651386       6.16421478
C        3.45518577      -3.41151497       3.36698409
C        7.27420985      -3.93537545       0.80426784
S        8.88731634      -3.28043894       0.77626691
C        9.44198271      -4.62963612      -0.11028388
C        8.40215398      -5.49925861      -0.35031952
N        7.18624507      -5.11380291       0.20098849
C        8.47955031      -6.74872331      -1.06290347
C        7.66597598      -7.77877008      -0.76159309
C        7.74205290      -9.05076030      -1.46065169
C        6.91560685     -10.13108775      -1.14270669
C        7.04522066     -11.33198199      -1.84719962
C        7.98960107     -11.46566364      -2.86691536
C        8.81530623     -10.38910326      -3.18531195
C        8.67850420      -9.19821563      -2.47545655
O        9.52861140      -8.13714672      -2.82023647
C        9.47475239      -6.90419321      -2.17381009
O       10.22550228      -5.99882003      -2.52545993
H        4.79230051      -4.74761211       0.94276742
H        3.18012867      -2.18253348       0.19205576
H        0.35557642      -1.79048353       4.62389605
H        2.49524430      -3.26473068       7.16875043
H        3.78671460      -2.69125954       6.10511874
H        3.21063763      -4.40108995       6.02057732
H        4.10253919      -4.05488520       3.95459056
H       10.47984527      -4.70343157      -0.40608614
H        6.92942805      -7.68750641       0.03233952
H        6.17568314     -10.04391028      -0.35109566
H        8.08926504     -12.39972887      -3.41416874
H        9.55515962     -10.47719862      -3.97612339
C        6.19521841     -12.44615761      -1.51597635
C        5.48334153     -13.37927970      -1.23857686
Br       4.33229682     -14.88805919      -0.79004535
C       -0.00445707       0.01189536      -1.78238275
H       -0.66409135       0.67374010      -2.43557963
H        0.65740317      -0.63156657      -2.45157240
C       -0.90989263      -0.90692880      -0.91072765
C        0.90977584       0.90977584      -0.90977584
C       -0.00465871       1.77757030       0.00794375
H       -0.66225468       2.44313916      -0.64384735
H        0.64322798       2.43503045       0.67728295
C       -1.78241447       0.00034974      -0.00472694
H       -2.45427497      -0.65498947       0.64260836
H       -2.43311707       0.67328779      -0.65473579
C       -0.91132561       0.90220522       0.91563759
C       -0.01476271      -0.02253852       1.78660255
H       -0.67934791      -0.69751639       2.42135241
H        0.63392994       0.61504881       2.47327442
C        0.01484550      -1.77751727      -0.01636693
H        0.67870853      -2.42144646      -0.68295456
H       -0.62264859      -2.45592969       0.64226336
C        1.78714474       0.01002794       0.00389507
H        2.44202412       0.67113390       0.66197326
H        2.45385902      -0.65136977      -0.64189061
C        0.91606151      -0.90478549       0.90901405
