190
Properties=species:S:1:pos:R:3 pbc="F F F"
N        5.06380904       0.01549593      -5.02076915
C        5.57541477       0.65580225      -4.20053772
C        6.20521925       1.45785595      -3.19516426
C        5.47283292       2.28495946      -2.41744238
C        4.01580900       2.44367710      -2.50758584
C        3.18073033       1.64855886      -1.71368187
C        1.79477291       1.79477291      -1.79477291
C        1.24776328       2.73070701      -2.67155217
O       -0.11141860       2.89493478      -2.75740130
C        2.07429164       3.51368540      -3.48918076
O        1.41498119       4.39116648      -4.31361908
C        2.14303734       4.84718511      -5.44937971
C        3.46090750       3.37669707      -3.39608026
C        7.62845173       1.40561523      -2.97978618
S        8.64429357       0.36372081      -3.93600781
C       10.02162045       0.87368685      -3.06602766
C        9.66165837       1.78776668      -2.10166802
N        8.30957394       2.10790839      -2.08355413
C       10.54610674       2.44520325      -1.17406015
C       10.28470004       3.68385215      -0.71460078
C       11.17484124       4.36671779       0.20939753
C       10.92211914       5.65859450       0.67672571
C       11.82348036       6.26419030       1.55766763
Br      11.48245315       8.01474479       2.18543762
C       12.97349035       5.59354342       1.97868441
C       13.22756312       4.30476568       1.51323126
C       12.32350863       3.71216279       0.63440813
O       12.61312727       2.41591905       0.18352467
C       11.77610985       1.73288582      -0.69613984
O       12.06154808       0.59134081      -1.04597350
H        5.94196021       2.89438551      -1.64633432
H        3.60695160       0.91661395      -1.03115236
H       -0.24933801       3.59701657      -3.42227744
H        1.44531835       5.38643652      -6.09697054
H        2.55166363       4.00854371      -6.02288554
H        2.93125963       5.54631598      -5.15472929
H        4.12451378       3.99189379      -3.99560738
H       10.99914324       0.47545412      -3.30259334
H        9.39447790       4.21691335      -1.03788274
H       10.03180831       6.19491414       0.35822469
H       13.67341684       6.06527262       2.66386429
H       14.11801675       3.76960740       1.83138930
N       -3.19754807      -6.34986426      -0.55266178
C       -2.56269829      -6.34610410      -1.52295236
C       -1.79008312      -6.33949187      -2.72866446
C       -1.58168780      -5.18859930      -3.40494766
C       -2.09557371      -3.87511986      -2.99637838
C       -1.31184645      -3.04464495      -2.18647966
C       -1.79477291      -1.79477291      -1.79477291
C       -3.06007298      -1.38087953      -2.20906995
O       -3.54687975      -0.15207087      -1.84196686
C       -3.86286202      -2.21541454      -2.99888123
O       -5.08906815      -1.69704448      -3.33365413
C       -6.08385393      -2.64284825      -3.71289998
C       -3.37234791      -3.45914975      -3.40218718
C       -1.21127477      -7.54990727      -3.25267111
S       -1.42872033      -9.07472279      -2.44057907
C       -0.47890302      -9.86206498      -3.62036696
C       -0.03878360      -8.95479099      -4.55751848
N       -0.48707856      -7.65450087      -4.35945704
C        0.78218369      -9.24172904      -5.70582479
C        0.67792008      -8.52185024      -6.83922281
C        1.48791536      -8.80863817      -8.01143870
C        1.37366903      -8.07996607      -9.19769088
C        2.17596260      -8.41231603     -10.29364960
Br       2.01660966      -7.42819029     -11.90017968
C        3.09242366      -9.46297799     -10.21779502
C        3.20757593     -10.19138214      -9.03529133
C        2.40178193      -9.85250243      -7.95054279
O        2.54185364     -10.60939848      -6.77797681
C        1.78533019     -10.35419094      -5.63627476
O        1.95883618     -11.03087092      -4.62682765
H       -0.99061489      -5.17253405      -4.31953111
H       -0.32555043      -3.36806792      -1.86109956
H       -4.43221563      -0.08821526      -2.24952511
H       -7.03909071      -2.11325353      -3.77638117
H       -6.18861373      -3.43275869      -2.96172046
H       -5.86979130      -3.06199511      -4.70051848
H       -3.96102618      -4.11203836      -4.03895042
H       -0.29459890     -10.92604896      -3.55654284
H       -0.03419617      -7.70399482      -6.91108299
H        0.66463294      -7.25946016      -9.27367055
H        3.71588324      -9.72027401     -11.07043441
H        3.91592112     -11.01184070      -8.96031527
N       -5.84215877       0.17258549       4.08532986
C       -6.08659362       1.01650766       3.32865346
C       -6.38615869       2.06812892       2.40395184
C       -5.40245088       2.85583793       1.91694595
C       -3.98083469       2.72543377       2.26080348
C       -3.14717172       1.92271168       1.47308766
C       -1.79477291       1.79477291       1.79477291
C       -1.28096283       2.46475885       2.90430078
O        0.04738104       2.35852429       3.22977423
C       -2.11262326       3.25042081       3.71411373
O       -1.48925056       3.85101016       4.77950603
C       -2.33532996       4.25162769       5.85264450
C       -3.46199551       3.38930327       3.38238606
C       -7.73516754       2.31507490       1.96361070
S       -9.06046409       1.34376551       2.53979258
C      -10.15590201       2.22961486       1.57581809
C       -9.48534569       3.19988415       0.86586323
N       -8.12031187       3.26242941       1.11829518
C      -10.06892438       4.14633292      -0.04988715
C       -9.53711692       5.37114535      -0.22510930
C      -10.12292773       6.34275976      -1.13352599
C       -9.58979522       7.62205148      -1.30785879
C      -10.20651669       8.51407320      -2.19058687
Br      -9.48649482      10.24698465      -2.42171915
C      -11.34860985       8.14236878      -2.90262928
C      -11.88222218       6.86662640      -2.72975103
C      -11.26047071       5.98704082      -1.84624826
O      -11.82702952       4.71291983      -1.69442769
C      -11.28455988       3.75790554      -0.83732991
O      -11.80421667       2.64883895      -0.75419324
H       -5.61959757       3.65426625       1.20881622
H       -3.54806116       1.39796905       0.60868771
H        0.16718100       2.91053794       4.02659906
H       -1.69456195       4.54448237       6.68968109
H       -2.96882691       3.42445950       6.18980647
H       -2.93650081       5.12208305       5.57372104
H       -4.12125219       4.01592317       3.97483959
H      -11.21022976       1.98777793       1.57918301
H       -8.65036853       5.67279003       0.32611542
H       -8.70156614       7.92758578      -0.76065415
H      -11.82707245       8.83664290      -3.58889017
H      -12.77047255       6.56219194      -3.27642965
N        3.77408328      -6.04377138       0.28221946
C        3.05382917      -6.20064331       1.17728226
C        2.17472570      -6.39212600       2.29138775
C        1.78512101      -5.34251192       3.04760184
C        2.19582317      -3.95118698       2.82006180
C        1.40969835      -3.11845312       2.01481958
C        1.79477291      -1.79477291       1.79477291
C        2.96557060      -1.30899838       2.37545348
O        3.35436213      -0.00836617       2.17818919
C        3.77288080      -2.14187068       3.16240631
O        4.90159119      -1.54806231       3.67011326
C        5.94919455      -2.43036011       4.06004749
C        3.37856432      -3.46139434       3.39372617
C        1.67816785      -7.69951335       2.63617194
S        2.12838219      -9.10438710       1.71125290
C        1.15880314     -10.09595774       2.70657407
C        0.54054684      -9.33647543       3.67407080
N        0.86787263      -7.98626408       3.64689975
C       -0.35051378      -9.81718995       4.69869397
C       -0.42874604      -9.21243778       5.89946123
C       -1.31120803      -9.69445700       6.94891253
C       -1.38544278      -9.08555380       8.20387691
C       -2.24836842      -9.60403295       9.17433850
Br      -2.34403784      -8.78164672      10.87415143
C       -3.03941664     -10.72265114       8.90511485
C       -2.96645939     -11.33176396       7.65379297
C       -2.10180137     -10.80765562       6.69540903
O       -2.05149041     -11.44835641       5.44865565
C       -1.22155977     -11.00580836       4.42088691
O       -1.22803799     -11.58718829       3.33971209
H        1.11217304      -5.47729066       3.89321635
H        0.49737847      -3.49764591       1.55969354
H        4.18597176       0.09578194       2.67976618
H        6.83396825      -1.82272785       4.27202930
H        6.20570694      -3.12452173       3.25286422
H        5.68790518      -2.96817565       4.97622407
H        3.96939391      -4.11864747       4.02397357
H        1.09293285     -11.16013614       2.52412170
H        0.18455356      -8.34313590       6.12158452
H       -0.77585602      -8.21434563       8.43000815
H       -3.71018584     -11.12469833       9.66031268
H       -3.57546143     -12.20296458       7.42873169
C       -0.00445707       0.01189536      -1.78238275
H       -0.66409135       0.67374010      -2.43557963
H        0.65740317      -0.63156657      -2.45157240
C       -0.90989263      -0.90692880      -0.91072765
C        0.90977584       0.90977584      -0.90977584
C       -0.00465871       1.77757030       0.00794375
H       -0.66225468       2.44313916      -0.64384735
H        0.64322798       2.43503045       0.67728295
C       -1.78241447       0.00034974      -0.00472694
H       -2.45427497      -0.65498947       0.64260836
H       -2.43311707       0.67328779      -0.65473579
C       -0.91132561       0.90220522       0.91563759
C       -0.01476271      -0.02253852       1.78660255
H       -0.67934791      -0.69751639       2.42135241
H        0.63392994       0.61504881       2.47327442
C        0.01484550      -1.77751727      -0.01636693
H        0.67870853      -2.42144646      -0.68295456
H       -0.62264859      -2.45592969       0.64226336
C        1.78714474       0.01002794       0.00389507
H        2.44202412       0.67113390       0.66197326
H        2.45385902      -0.65136977      -0.64189061
C        0.91606151      -0.90478549       0.90901405
