169
Properties=species:S:1:pos:R:3 pbc="F F F"
C        0.00000000       0.00000000       0.00000000
N        4.15390501      -0.89440809      -4.11086512
C        4.66551075      -0.25410177      -3.29063369
C        5.29531522       0.54795192      -2.28526024
C        4.56292890       1.37505544      -1.50753836
C        3.10590498       1.53377308      -1.59768182
C        2.27082630       0.73865483      -0.80377785
C        0.88486889       0.88486889      -0.88486889
C        0.33785926       1.82080299      -1.76164815
O       -1.02132262       1.98503076      -1.84749728
C        1.16438762       2.60378138      -2.57927673
O        0.50507717       3.48126245      -3.40371506
C        1.23313331       3.93728109      -4.53947568
C        2.55100348       2.46679305      -2.48617624
C        6.71854771       0.49571121      -2.06988216
S        7.73438955      -0.54618322      -3.02610378
C        9.11171642      -0.03621718      -2.15612364
C        8.75175434       0.87786266      -1.19176399
N        7.39966992       1.19800437      -1.17365010
C        9.63620271       1.53529923      -0.26415613
C        9.37479601       2.77394813       0.19530324
C       10.26493722       3.45681377       1.11930155
C       10.01221511       4.74869047       1.58662974
C       10.91357633       5.35428627       2.46757165
Br      10.57254913       7.10484076       3.09534165
C       12.06358632       4.68363939       2.88858843
C       12.31765910       3.39486166       2.42313529
C       11.41360460       2.80225876       1.54431216
O       11.70322325       1.50601503       1.09342870
C       10.86620582       0.82298180       0.21376419
O       11.15164405      -0.31856321      -0.13606947
H        5.03205619       1.98448149      -0.73643029
H        2.69704758       0.00670993      -0.12124834
H       -1.15924204       2.68711255      -2.51237342
H        0.53541433       4.47653250      -5.18706651
H        1.64175960       3.09863969      -5.11298152
H        2.02135560       4.63641195      -4.24482527
H        3.21460976       3.08198977      -3.08570336
H       10.08923921      -0.43444990      -2.39268931
H        8.48457387       3.30700932      -0.12797871
H        9.12190429       5.28501012       1.26812872
H       12.76351282       5.15536859       3.57376831
H       13.20811272       2.85970338       2.74129332
N       -2.63538068      -5.26566676       0.53068539
C       -1.94626965      -5.35855187      -0.39722115
C       -1.10604993      -5.47109685      -1.55138060
C       -0.78823741      -4.37810145      -2.27918383
C       -1.24305138      -3.01433767      -1.97997082
C       -0.45796227      -2.18241782      -1.17287889
C       -0.88486889      -0.88486889      -0.88486889
C       -2.09608100      -0.42456234      -1.39966706
O       -2.52672413       0.85070789      -1.13518917
C       -2.90157938      -1.25818372      -2.18768263
O       -4.07201484      -0.69114380      -2.62689604
C       -5.09950333      -1.59919325      -3.01119351
C       -2.46606106      -2.55077292      -2.48713878
C       -0.57349655      -6.74304741      -1.96759712
S       -0.93124956      -8.19972993      -1.08333062
C        0.03510774      -9.11206586      -2.15466477
C        0.58393946      -8.29133708      -3.11398337
N        0.20588449      -6.95749334      -3.01971555
C        1.45091757      -8.69564739      -4.19092824
C        1.45716110      -8.04214250      -5.36845949
C        2.31460334      -8.44713984      -6.46991294
C        2.31450907      -7.78755081      -7.70123410
C        3.15704432      -8.23280068      -8.72453459
Br       3.15213616      -7.34195508     -10.39222933
C        4.00107160      -9.32820182      -8.53150706
C        4.00230261      -9.98780742      -7.30388066
C        3.15733242      -9.53653888      -6.29234475
O        3.18221445     -10.22659262      -5.07143141
C        2.37787689      -9.85804571      -3.99525462
O        2.45048232     -10.48016305      -2.93946958
H       -0.14522069      -4.45275246      -3.15499482
H        0.48598199      -2.54186661      -0.76912122
H       -3.38129639       0.94059806      -1.59954560
H       -6.01499386      -1.01997661      -3.16404287
H       -5.29615462      -2.33390103      -2.22332516
H       -4.85472365      -2.09011626      -3.95775291
H       -3.05590555      -3.20639413      -3.12000320
H        0.14948294     -10.17899398      -2.01796758
H        0.80216771      -7.19032480      -5.53140482
H        1.66298718      -6.93352472      -7.86824814
H        4.65591926      -9.67329546      -9.32773690
H        4.65319726     -10.84180808      -7.13791195
N       -3.15684227      -0.73151223       4.94503200
C       -3.91373070      -0.36049328       4.14880524
C       -4.84751536       0.11045636       3.17055566
C       -4.43280578       0.87557687       2.13714004
C       -3.04196876       1.28716644       1.90822468
C       -2.20804697       0.49888109       1.10633092
C       -0.88486889       0.88486889       0.88486889
C       -0.39798222       2.05364389       1.46868429
O        0.89653143       2.45356348       1.25417336
C       -1.21731603       2.83633112       2.29379858
O       -0.61894922       3.95675090       2.81435457
C       -1.22564456       4.50310546       3.98114006
C       -2.54494622       2.45675829       2.50226825
C       -6.24754508      -0.21760924       3.25420524
S       -6.86391594      -1.20147541       4.55186959
C       -8.43940271      -1.10906378       3.90128395
C       -8.43255452      -0.35847547       2.74730195
N       -7.19305858       0.17021269       2.40805311
C       -9.57074148      -0.05376570       1.91868230
C       -9.64037969       1.09454174       1.21851947
C      -10.78852886       1.42359589       0.39032469
C      -10.87844221       2.62032566      -0.32449203
C      -12.01495852       2.88144795      -1.09611552
Br     -12.13726611       4.50392948      -2.05914735
C      -13.06195736       1.96014285      -1.16346293
C      -12.97427450       0.76581104      -0.45070007
C      -11.83809031       0.51726317       0.31619773
O      -11.78566422      -0.69304233       1.02318768
C      -10.69611399      -1.03983944       1.81914889
O      -10.68708854      -2.12011059       2.40217236
H       -5.13441330       1.23354220       1.38501247
H       -2.58678227      -0.41427085       0.65249442
H        0.99978474       3.28680053       1.75322814
H       -0.55206678       5.26794151       4.37900505
H       -1.35897989       3.73962154       4.75477937
H       -2.17476245       4.98986750       3.73796287
H       -3.20949301       3.06085314       3.11195673
H       -9.26549220      -1.60795551       4.38994193
H       -8.83309933       1.82064226       1.26582032
H      -10.07251292       3.34863762      -0.28236484
H      -13.94496245       2.16411028      -1.76395964
H      -13.78051618       0.03866568      -0.49265908
N        3.06937765      -5.00389299      -0.70290860
C        2.32432696      -5.21842495       0.15929075
C        1.41419881      -5.48107184       1.23325674
C        0.96034504      -4.47399905       2.01117860
C        1.32787997      -3.06175358       1.84772632
C        0.54073025      -2.22838367       1.04414507
C        0.88486889      -0.88486889       0.88486889
C        2.01610279      -0.37973904       1.52446857
O        2.36399244       0.94005867       1.38727164
C        2.82505798      -1.21183782       2.31054993
O        3.91288920      -0.59763453       2.87953096
C        4.97756853      -1.45621092       3.27611064
C        2.47114218      -2.55193610       2.48089449
C        0.95374693      -6.81676817       1.51362598
S        1.48698429      -8.17037879       0.55694703
C        0.51978255      -9.23094413       1.48089621
C       -0.15929064      -8.52934882       2.45132281
N        0.11943554      -7.16838331       2.48350553
C       -1.06769353      -9.07802104       3.42533056
C       -1.20999324      -8.52048589       4.64294824
C       -2.11063277      -9.07106274       5.64201947
C       -2.25099407      -8.51121377       6.91405615
C       -3.12802203      -9.09464348       7.83366951
Br      -3.31317847      -8.33852546       9.55670125
C       -3.86789841     -10.22980800       7.49672769
C       -3.72893324     -10.79004372       6.22827499
C       -2.85080403     -10.20137071       5.32098453
O       -2.73346708     -10.79411537       4.05516129
C       -1.88461662     -10.28559268       3.07444738
O       -1.83196857     -10.82711179       1.97400709
H        0.26347218      -4.66300566       2.82649014
H       -0.34064345      -2.62256167       0.54308762
H        3.17313722       1.05501967       1.92212638
H        5.83165533      -0.82600474       3.54135327
H        5.28735475      -2.11110422       2.45492184
H        4.70401680      -2.03585268       4.16272334
H        3.06300494      -3.21053868       3.10875926
H        0.49912862     -10.28943432       1.25891568
H       -0.63691159      -7.63884568       4.91762782
H       -1.68183060      -7.62794592       7.19267037
H       -4.54969463     -10.68237432       8.21243340
H       -4.29755058     -11.67332244       5.95075092
