133
Properties=species:S:1:pos:R:3 pbc="F F F"
C        0.00000000       0.00000000       0.00000000
O        1.76782762       6.89857437      -4.74160135
C        2.70819653       6.25526344      -4.28049955
C        3.64533571       5.47376951      -5.19450300
S        2.84421964       3.96802845      -5.81668035
C        2.56256850       3.13494123      -4.33721046
N        1.52829080       2.25227000      -4.24280747
H        0.89971075       2.00733025      -4.99609255
C        1.46030786       1.84207990      -2.93897121
C        0.59809916       1.00183251      -2.23922332
C        0.88054621       0.88054621      -0.88054621
C        1.96155407       1.56838013      -0.33182309
N        2.80857512       2.38307940      -1.00849677
C        2.52332631       2.49989877      -2.32382846
N        3.20786281       3.29039055      -3.20671431
N        3.04834681       6.14932060      -2.94203050
C        2.46415541       6.80755328      -1.84268942
C        1.43851924       7.74878401      -1.94947023
C        0.91640163       8.36233608      -0.80463790
C        1.43110801       8.04581576       0.44976244
C        2.45972082       7.11648140       0.57149024
C        2.96884845       6.49530774      -0.57230169
H        4.58423183       5.22508059      -4.68882008
H        3.90066858       6.11841070      -6.04205709
H       -0.23345272       0.49473511      -2.71406755
H        2.18776383       1.48124314       0.72872470
H        3.70163787       5.40266294      -2.70972771
H        1.01487253       8.02409775      -2.91023179
H        0.11051649       9.08396285      -0.90932868
H        2.87158707       6.86690503       1.54542886
H        3.76888013       5.76726283      -0.45755701
C        0.89616563       8.68182841       1.62574056
C        0.44815138       9.21448901       2.61062224
Br      -0.27624977      10.07575615       4.20309261
O       -6.61798243      -1.61337598      -5.17664493
C       -5.65676088      -2.37875122      -5.20844742
C       -5.78317817      -3.81564949      -4.71478057
S       -5.84822625      -3.87917318      -2.90152900
C       -4.31065518      -3.20973941      -2.51432560
N       -4.13241409      -2.56321478      -1.32773940
H       -4.83644921      -2.45699728      -0.60968706
C       -2.87303675      -2.02779733      -1.34052488
C       -2.15684274      -1.23387372      -0.44843853
C       -0.88054621      -0.88054621      -0.88054621
C       -0.41720338      -1.32788964      -2.11666426
N       -1.10684184      -2.10607106      -2.98723839
C       -2.34565413      -2.43842246      -2.56297696
N       -3.24490310      -3.18282427      -3.27724029
N       -4.38729685      -2.07844209      -5.67395898
C       -3.94426192      -0.88805871      -6.28207748
C       -4.77159020       0.20027499      -6.56545828
C       -4.25149182       1.34640968      -7.17829346
C       -2.90354900       1.39944908      -7.52306142
C       -2.06831104       0.31904098      -7.25544191
C       -2.58788748      -0.81801173      -6.63055866
H       -4.96681001      -4.44206697      -5.08925552
H       -6.71318041      -4.22805915      -5.11989682
H       -2.56752149      -0.90751107       0.49968262
H        0.57727467      -1.05465416      -2.46290277
H       -3.65514212      -2.73971627      -5.41917013
H       -5.82787957       0.19403422      -6.31535672
H       -4.91068880       2.18665926      -7.37977848
H       -1.01634853       0.34884761      -7.52556233
H       -1.91906327      -1.65064141      -6.42399530
C       -2.37154753       2.57732402      -8.15802997
C       -1.92599630       3.56379428      -8.68981614
Br      -1.20557764       5.15883326      -9.54966939
O       -7.14636691       2.00749262       4.25414381
C       -6.09884503       2.55690861       4.58820590
C       -5.89375722       4.05154791       4.36830309
S       -5.59535984       4.41817491       2.61539369
C       -4.14046263       3.53510902       2.35914854
N       -3.84253285       3.06639338       1.11444204
H       -4.40194216       3.21577991       0.28541148
C       -2.71267462       2.30234727       1.22633708
C       -1.97496420       1.53931234       0.32487845
C       -0.88054621       0.88054621       0.88054621
C       -0.59933201       1.02429051       2.23813478
N       -1.30971872       1.77042044       3.12001214
C       -2.37276622       2.40036368       2.57392365
N       -3.26118059       3.17961093       3.26417615
N       -5.00895264       1.94538267       5.18536261
C       -4.89003132       0.60952775       5.61483904
C       -5.92111845      -0.32919930       5.54485434
C       -5.72139551      -1.63791667       5.99989677
C       -4.49228282      -2.00586983       6.54074835
C       -3.45787194      -1.07888705       6.62572709
C       -3.65622228       0.22288436       6.15735123
H       -5.07518351       4.43925134       4.98369765
H       -6.80563776       4.56535475       4.69014387
H       -2.24145911       1.45597911      -0.72208829
H        0.25191459       0.51145329       2.68074357
H       -4.14440665       2.48465210       5.18496977
H       -6.89387395      -0.07828019       5.13360831
H       -6.53389471      -2.35590998       5.92582330
H       -2.49698205      -1.35500339       7.05108458
H       -2.83465277       0.93245903       6.22658818
C       -4.29044782      -3.35117865       7.01298431
C       -4.12141101      -4.47787479       7.40848193
Br      -3.84809279      -6.29964716       8.04796813
O        3.31522146      -7.42078664       2.67199524
C        3.92410403      -6.38574349       2.93411201
C        4.04887381      -5.89319607       4.37153834
S        2.48169594      -5.18900035       4.95823215
C        2.29913715      -3.88110071       3.85448233
N        1.05310042      -3.42005437       3.55021348
H        0.18981082      -3.76695914       3.94636359
C        1.19545441      -2.48039922       2.56550533
C        0.29461884      -1.71377210       1.83076405
C        0.88054621      -0.88054621       0.88054621
C        2.26662549      -0.86002919       0.73510261
N        3.14971742      -1.59915662       1.45127725
C        2.57244704      -2.40887697       2.36572954
N        3.24755513      -3.27543830       3.18197423
N        4.55887088      -5.55737881       2.02344823
C        4.72268958      -5.75315577       0.63855276
C        4.29253501      -6.89096404      -0.04672557
C        4.50003919      -7.00941188      -1.42607546
C        5.15309507      -5.99455233      -2.12048607
C        5.59589544      -4.85853843      -1.44972190
C        5.37434942      -4.73722896      -0.07512050
H        4.85815014      -5.16308712       4.47689524
H        4.31083608      -6.75222841       4.99807188
H       -0.77705218      -1.77286975       1.97953237
H        2.73231510      -0.21412107      -0.00615391
H        4.81236760      -4.63286498       2.36879594
H        3.78373959      -7.70429762       0.46116486
H        4.14721457      -7.89853972      -1.94194626
H        6.11121915      -4.06372790      -1.98188380
H        5.72232078      -3.83977898       0.43160021
C        5.37013358      -6.12056735      -3.53844746
C        5.55190334      -6.22610493      -4.72599012
Br       5.84580966      -6.39675027      -6.64614617
