154
Properties=species:S:1:pos:R:3 pbc="F F F"
O        2.67773164       7.80847840      -5.65150537
C        3.61810056       7.16516747      -5.19040358
C        4.55523974       6.38367353      -6.10440703
S        3.75412366       4.87793247      -6.72658437
C        3.47247252       4.04484526      -5.24711448
N        2.43819482       3.16217403      -5.15271149
H        1.80961477       2.91723428      -5.90599657
C        2.37021188       2.75198392      -3.84887523
C        1.50800318       1.91173653      -3.14912735
C        1.79045023       1.79045023      -1.79045023
C        2.87145810       2.47828416      -1.24172711
N        3.71847915       3.29298342      -1.91840079
C        3.43323034       3.40980280      -3.23373248
N        4.11776683       4.20029457      -4.11661833
N        3.95825084       7.05922463      -3.85193452
C        3.37405944       7.71745730      -2.75259345
C        2.34842326       8.65868804      -2.85937425
C        1.82630566       9.27224010      -1.71454192
C        2.34101204       8.95571978      -0.46014158
C        3.36962484       8.02638542      -0.33841378
C        3.87875247       7.40521177      -1.48220571
H        5.49413586       6.13498461      -5.59872410
H        4.81057261       7.02831472      -6.95196111
H        0.67645130       1.40463914      -3.62397157
H        3.09766786       2.39114716      -0.18117932
H        4.61154189       6.31256697      -3.61963173
H        1.92477655       8.93400178      -3.82013582
H        1.02042052       9.99386688      -1.81923271
H        3.78149110       7.77680905       0.63552483
H        4.67878416       6.67716686      -1.36746103
C        1.80606965       9.59173244       0.71583654
C        1.35805540      10.12439304       1.70071821
Br       0.63365425      10.98566018       3.29318859
O       -7.08585389      -2.41587498      -6.63598653
C       -6.22453090      -3.27724311      -6.47189759
C       -6.57253831      -4.62367846      -5.84710353
S       -6.83670475      -4.46392184      -4.05801391
C       -5.28027997      -3.92015566      -3.56399663
N       -5.15335931      -3.15973847      -2.43998256
H       -5.91196092      -2.89481061      -1.82607409
C       -3.84506463      -2.76631035      -2.35969606
C       -3.13829311      -1.95246915      -1.47810480
C       -1.79045023      -1.79045023      -1.79045023
C       -1.25504979      -2.42819599      -2.90822359
N       -1.93601615      -3.22675639      -3.76709082
C       -3.24352748      -3.37297733      -3.46026080
N       -4.14399576      -4.09736589      -4.19331809
N       -4.88619190      -3.17081133      -6.81240676
C       -4.24277510      -2.11494262      -7.48639247
C       -4.90007810      -0.98641986      -7.97998759
C       -4.18534253       0.01702789      -8.64477304
C       -2.81173559      -0.11462317      -8.83051465
C       -2.14400937      -1.23803463      -8.35238005
C       -2.85842835      -2.23113951      -7.67660209
H       -5.80133822      -5.37323278      -6.05327357
H       -7.49670082      -4.98030117      -6.31384645
H       -3.60552677      -1.47398456      -0.62555068
H       -0.20405735      -2.30513450      -3.16080249
H       -4.26904201      -3.87103198      -6.40366660
H       -5.97014991      -0.85076877      -7.85799547
H       -4.71484545       0.89253273      -9.01120738
H       -1.07328340      -1.35234180      -8.49715012
H       -2.31905416      -3.09953960      -7.30481829
C       -2.07912712       0.91626497      -9.51910340
C       -1.46556752       1.77963379     -10.09579649
Br      -0.47349355       3.17562814     -11.02826043
O       -7.28776461       6.40105321       2.44889759
C       -6.87130449       5.71934383       3.38302328
C       -6.13118467       6.36064080       4.55149483
S       -4.44648471       6.83915574       4.07300005
C       -3.78945048       5.29865210       3.67632968
N       -2.77488765       5.20745456       2.77073813
H       -2.33245854       5.99100603       2.30938104
C       -2.54129967       3.87669249       2.55307888
C       -1.67834869       3.17682392       1.71369445
C       -1.79045023       1.79045023       1.79045023
C       -2.70987930       1.21545592       2.66613415
N       -3.54859092       1.89077857       3.49049388
C       -3.43760352       3.23444352       3.40471858
N       -4.19861678       4.12976377       4.10629919
N       -7.00481847       4.34727766       3.51731386
C       -7.70587117       3.45690514       2.68133388
C       -8.44852278       3.85119285       1.56676993
C       -9.12197707       2.90074922       0.79036139
C       -9.06584974       1.55353671       1.13748695
C       -8.33734712       1.14611853       2.25095840
C       -7.65451786       2.09610952       3.01554257
H       -6.10643492       5.69827815       5.42313151
H       -6.68618847       7.25691855       4.84774143
H       -0.98539766       3.67420333       1.04546101
H       -2.80566355       0.13370218       2.73062861
H       -6.41038437       3.91210653       4.22124969
H       -8.51898888       4.89229249       1.26763278
H       -9.68512805       3.22803235      -0.07964030
H       -8.29197523       0.09783731       2.53296278
H       -7.08553569       1.75877611       3.87910025
C       -9.76348539       0.57796414       0.34051602
C      -10.34775525      -0.23907788      -0.32694714
Br     -11.29247018      -1.56016574      -1.40617861
O        2.57336558      -7.63777151       5.92657832
C        3.51920868      -7.07248666       5.38197626
C        4.54510974      -6.29719832       6.20101224
S        3.85961320      -4.71893653       6.78009078
C        3.54061705      -3.95020665       5.27360857
N        2.55036845      -3.01785378       5.18485811
H        1.97810159      -2.69940182       5.95534221
C        2.43197557      -2.67340577       3.86568970
C        1.57759983      -1.82458306       3.16668418
C        1.79045023      -1.79045023       1.79045023
C        2.80193823      -2.56481005       1.22472108
N        3.64123302      -3.38852793       1.90010242
C        3.42342617      -3.42032279       3.23301666
N        4.11337960      -4.20011496       4.12118518
N        3.78990823      -7.05578479       4.02371697
C        3.11213870      -7.73739690       2.99457459
C        2.04607495      -8.61358424       3.20682636
C        1.43002422      -9.25646138       2.12660209
C        1.89045382      -9.03504177       0.83137781
C        2.95803577      -8.17166392       0.60472436
C        3.56147604      -7.52052355       1.68417036
H        5.46634442      -6.12764313       5.63385703
H        4.81279416      -6.90968121       7.06837308
H        0.80128876      -1.24809933       3.65567392
H        2.97341118      -2.54599823       0.15058493
H        4.46757385      -6.35959198       3.71657476
H        1.66236206      -8.81433637       4.20221572
H        0.59446276      -9.92594382       2.31311352
H        3.32792538      -7.99661332      -0.40176339
H        4.39098137      -6.84484468       1.48758601
C        1.25871658      -9.70123683      -0.27798786
C        0.72963663     -10.25917519      -1.20708160
Br      -0.12584089     -11.16131434      -2.70934761
C       -0.00445707       0.01189536      -1.78238275
H       -0.66409135       0.67374010      -2.43557963
H        0.65740317      -0.63156657      -2.45157240
C       -0.90989263      -0.90692880      -0.91072765
C        0.90977584       0.90977584      -0.90977584
C       -0.00465871       1.77757030       0.00794375
H       -0.66225468       2.44313916      -0.64384735
H        0.64322798       2.43503045       0.67728295
C       -1.78241447       0.00034974      -0.00472694
H       -2.45427497      -0.65498947       0.64260836
H       -2.43311707       0.67328779      -0.65473579
C       -0.91132561       0.90220522       0.91563759
C       -0.01476271      -0.02253852       1.78660255
H       -0.67934791      -0.69751639       2.42135241
H        0.63392994       0.61504881       2.47327442
C        0.01484550      -1.77751727      -0.01636693
H        0.67870853      -2.42144646      -0.68295456
H       -0.62264859      -2.45592969       0.64226336
C        1.78714474       0.01002794       0.00389507
H        2.44202412       0.67113390       0.66197326
H        2.45385902      -0.65136977      -0.64189061
C        0.91606151      -0.90478549       0.90901405
