125
Properties=species:S:1:pos:R:3 pbc="F F F"
C        0.00000000       0.00000000       0.00000000
O        1.76782762       6.89857437      -4.74160135
C        2.70819653       6.25526344      -4.28049955
C        3.64533571       5.47376951      -5.19450300
S        2.84421964       3.96802845      -5.81668035
C        2.56256850       3.13494123      -4.33721046
N        1.52829080       2.25227000      -4.24280747
H        0.89971075       2.00733025      -4.99609255
C        1.46030786       1.84207990      -2.93897121
C        0.59809916       1.00183251      -2.23922332
C        0.88054621       0.88054621      -0.88054621
C        1.96155407       1.56838013      -0.33182309
N        2.80857512       2.38307940      -1.00849677
C        2.52332631       2.49989877      -2.32382846
N        3.20786281       3.29039055      -3.20671431
N        3.04834681       6.14932060      -2.94203050
C        2.46415541       6.80755328      -1.84268942
C        1.43851924       7.74878401      -1.94947023
C        0.91640163       8.36233608      -0.80463790
C        1.43110801       8.04581576       0.44976244
Br       0.72908527       8.88047639       1.99303777
C        2.45972082       7.11648140       0.57149024
C        2.96884845       6.49530774      -0.57230169
H        4.58423183       5.22508059      -4.68882008
H        3.90066858       6.11841070      -6.04205709
H       -0.23345272       0.49473511      -2.71406755
H        2.18776383       1.48124314       0.72872470
H        3.70163787       5.40266294      -2.70972771
H        1.01487253       8.02409775      -2.91023179
H        0.11051649       9.08396285      -0.90932868
H        2.87158707       6.86690503       1.54542886
H        3.76888013       5.76726283      -0.45755701
O       -5.84073686      -1.49754945      -6.06971702
C       -5.06427176      -2.40389739      -5.77579038
C       -5.56201027      -3.66788128      -5.08371667
S       -5.94270637      -3.34875112      -3.33747094
C       -4.38851098      -2.88285638      -2.76335283
N       -4.28447501      -2.04752049      -1.69137277
H       -5.06263601      -1.68034334      -1.16015419
C       -2.95860906      -1.74558178      -1.53716813
C       -2.25616522      -0.91858197      -0.66440779
C       -0.88054621      -0.88054621      -0.88054621
C       -0.31688266      -1.64179566      -1.90307897
N       -0.99412582      -2.45369659      -2.75232889
C       -2.32799888      -2.47940578      -2.53964888
N       -3.22681478      -3.19161916      -3.28653373
N       -3.70042601      -2.42265267      -6.01661923
C       -2.92829703      -1.47300294      -6.71309814
C       -3.45680486      -0.34191580      -7.33805282
C       -2.61857341       0.55113343      -8.01593563
C       -1.24973049       0.30529615      -8.08272699
Br      -0.12125257       1.50890206      -9.00417337
C       -0.70932791      -0.82268898      -7.47269508
C       -1.54723218      -1.70461195      -6.78461374
H       -4.83929516      -4.48566341      -5.17317393
H       -6.47484561      -3.99173793      -5.59455283
H       -2.74524088      -0.34155295       0.11144389
H        0.75616945      -1.61610348      -2.08034825
H       -3.17188553      -3.13167280      -5.51047019
H       -4.51889919      -0.11929204      -7.31101085
H       -3.04924870       1.43135686      -8.48591619
H        0.35676240      -1.02593539      -7.52389025
H       -1.10657346      -2.57807100      -6.30905552
O       -6.56835931       5.24528318       1.59436084
C       -6.07244051       4.63348307       2.53803594
C       -5.31007615       5.36917106       3.63436102
S       -3.67746524       5.90410622       3.04735697
C       -2.96243931       4.37916574       2.69311514
N       -1.98990354       4.29124084       1.74222389
H       -1.61125339       5.07074909       1.22113107
C       -1.69928676       2.96404538       1.57802683
C       -0.84354783       2.26497631       0.73063085
C       -0.88054621       0.88054621       0.88054621
C       -1.72548944       0.30705469       1.82921317
N       -2.55652396       0.98205103       2.66157630
C       -2.51888708       2.32336269       2.50480378
N       -3.28968440       3.21529920       3.19998407
N       -6.12872561       3.26523029       2.74574202
C       -6.82313721       2.30004292       1.99121799
C       -7.63849265       2.59998442       0.89829641
C       -8.29939027       1.57927652       0.20470882
C       -8.15740502       0.25597472       0.61378159
Br      -9.05600258      -1.11936018      -0.32011852
C       -7.35554317      -0.05781031       1.70697911
C       -6.68584749       0.96229701       2.38831338
H       -5.20892502       4.75436419       4.53484328
H       -5.89519496       6.25132697       3.91461444
H       -0.21041966       2.76063956       0.00429071
H       -1.76242718      -0.77335192       1.95120700
H       -5.47914377       2.89622735       3.43865740
H       -7.77674626       3.61970174       0.55275408
H       -8.92033394       1.83367317      -0.65019908
H       -7.24278814      -1.08679329       2.03706840
H       -6.05888619       0.69782924       3.23698455
O        1.62353489      -6.64243833       5.14203011
C        2.56896462      -6.11466805       4.56032686
C        3.63386821      -5.34556993       5.33417009
S        3.00210184      -3.73682267       5.89000393
C        2.66426485      -2.99751579       4.37293955
N        1.69527831      -2.04300120       4.28508876
H        1.15056751      -1.69143655       5.06112949
C        1.55222034      -1.72816415       2.96097448
C        0.70161765      -0.87552467       2.26201266
C        0.88054621      -0.88054621       0.88054621
C        1.85816908      -1.69376303       0.30982518
N        2.69372187      -2.52151355       0.98491587
C        2.50880733      -2.51509401       2.32315221
N        3.20154318      -3.28996576       3.21345872
N        2.80573103      -6.13812418       3.19584271
C        2.08575642      -6.82752021       2.20112148
C        1.00418726      -7.67113299       2.46145323
C        0.34555870      -8.32462466       1.41319225
C        0.77854847      -8.14671633       0.10189653
Br      -0.10807829      -9.03531788      -1.31071571
C        1.86095813      -7.31629680      -0.17254296
C        2.50716725      -6.65424881       0.87504182
H        4.54442465      -5.21321911       4.74048873
H        3.90817879      -5.94312157       6.20983601
H       -0.04776106      -0.26786251       2.75524848
H        2.00297094      -1.70564044      -0.76832911
H        3.49233678      -5.46695099       2.85474075
H        0.64082976      -7.83767593       3.47069639
H       -0.50122500      -8.96809180       1.63694123
H        2.20959083      -7.17536409      -1.19189168
H        3.34779719      -6.00468391       0.64121888
