146
Properties=species:S:1:pos:R:3 pbc="F F F"
O        2.67773164       7.80847840      -5.65150537
C        3.61810056       7.16516747      -5.19040358
C        4.55523974       6.38367353      -6.10440703
S        3.75412366       4.87793247      -6.72658437
C        3.47247252       4.04484526      -5.24711448
N        2.43819482       3.16217403      -5.15271149
H        1.80961477       2.91723428      -5.90599657
C        2.37021188       2.75198392      -3.84887523
C        1.50800318       1.91173653      -3.14912735
C        1.79045023       1.79045023      -1.79045023
C        2.87145810       2.47828416      -1.24172711
N        3.71847915       3.29298342      -1.91840079
C        3.43323034       3.40980280      -3.23373248
N        4.11776683       4.20029457      -4.11661833
N        3.95825084       7.05922463      -3.85193452
C        3.37405944       7.71745730      -2.75259345
C        2.34842326       8.65868804      -2.85937425
C        1.82630566       9.27224010      -1.71454192
C        2.34101204       8.95571978      -0.46014158
Br       1.63898929       9.79038041       1.08313375
C        3.36962484       8.02638542      -0.33841378
C        3.87875247       7.40521177      -1.48220571
H        5.49413586       6.13498461      -5.59872410
H        4.81057261       7.02831472      -6.95196111
H        0.67645130       1.40463914      -3.62397157
H        3.09766786       2.39114716      -0.18117932
H        4.61154189       6.31256697      -3.61963173
H        1.92477655       8.93400178      -3.82013582
H        1.02042052       9.99386688      -1.81923271
H        3.78149110       7.77680905       0.63552483
H        4.67878416       6.67716686      -1.36746103
O       -6.19428372      -2.49411349      -7.44931821
C       -5.57119908      -3.43678319      -6.96568934
C       -6.29221519      -4.54483615      -6.20626895
S       -6.81881453      -3.97490322      -4.56492276
C       -5.29109440      -3.61423607      -3.85910179
N       -5.20294487      -2.67033694      -2.87979853
H       -5.98349857      -2.15840900      -2.49093804
C       -3.87482209      -2.49793717      -2.59831178
C       -3.17567787      -1.65177926      -1.74140993
C       -1.79045023      -1.79045023      -1.79045023
C       -1.21623310      -2.72789704      -2.64733922
N       -1.89122870      -3.55902650      -3.47960817
C       -3.23338930      -3.41316292      -3.43021340
N       -4.12591142      -4.10930559      -4.19946273
N       -4.20184693      -3.63321791      -7.03434514
C       -3.24812747      -2.86566345      -7.73031926
C       -3.56306886      -1.76878550      -8.53463120
C       -2.55308939      -1.06198765      -9.19801064
C       -1.22553853      -1.46168711      -9.06964776
Br       0.13528183      -0.50992363      -9.97159415
C       -0.89685898      -2.55862571      -8.27893935
C       -1.90626446      -3.25323526      -7.60667023
H       -5.66958369      -5.44119549      -6.11706539
H       -7.17674396      -4.82745676      -6.78664773
H       -3.67200225      -0.93436878      -1.09869097
H       -0.13522863      -2.84105222      -2.69371349
H       -3.82229647      -4.32826821      -6.39317591
H       -4.58652626      -1.43024176      -8.66214613
H       -2.81908488      -0.20427347      -9.81016175
H        0.13554071      -2.88144411      -8.17687191
H       -1.63019982      -4.10468068      -6.98853155
O       -7.57774504       6.01539989       2.54457049
C       -7.03891197       5.44444666       3.49031298
C       -6.26778742       6.23158764       4.54394523
S       -4.66775548       6.79443431       3.89645072
C       -3.91986720       5.28033979       3.56422527
N       -2.97177984       5.19233764       2.58896286
H       -2.62984003       5.96690976       2.03609582
C       -2.64833591       3.86952983       2.45320530
C       -1.79680278       3.17057476       1.60148952
C       -1.79045023       1.79045023       1.79045023
C       -2.59238039       1.22100169       2.77808729
N       -3.41896072       1.89615736       3.61474528
C       -3.42364332       3.23302051       3.42010178
N       -4.19995204       4.12272173       4.11200596
N       -7.05069804       4.08159197       3.73711997
C       -7.73801530       3.07667819       3.02941669
C       -8.59131570       3.32299632       1.95217354
C       -9.24189562       2.26525317       1.30593889
C       -9.05129479       0.95847391       1.74710470
Br      -9.93596541      -0.46696725       0.87723779
C       -8.21107794       0.69795938       2.82538673
C       -7.55202716       1.75499772       3.45914507
H       -6.12451811       5.64553880       5.45778766
H       -6.86970895       7.10488078       4.81625871
H       -1.19819816       3.66271857       0.84414527
H       -2.59534320       0.14387469       2.93077645
H       -6.37209934       3.75037774       4.42126351
H       -8.76784392       4.32832926       1.58274096
H       -9.89309369       2.47815276       0.46227365
H       -8.06019151      -0.31777150       3.18035530
H       -6.89470273       1.53202397       4.29668535
O        2.43610718      -7.22526529       6.47634295
C        3.36572248      -6.83420443       5.77374469
C        4.55549718      -6.10273025       6.38509287
S        4.11079776      -4.40347769       6.84436505
C        3.70014103      -3.76425320       5.30003804
N        2.80907424      -2.73708205       5.20692405
H        2.36704215      -2.27533412       5.99046935
C        2.57412061      -2.52076727       3.87618316
C        1.73730044      -1.65565753       3.17590909
C        1.79045023      -1.79045023       1.79045023
C        2.64259406      -2.73237523       1.21650008
N        3.46438243      -3.57339559       1.89208535
C        3.40152500      -3.44023722       3.23500340
N        4.10523671      -4.19823016       4.13121288
N        3.47628626      -6.99108906       4.40203467
C        2.61560272      -7.69260975       3.53589773
C        1.49600305      -8.41139799       3.95908451
C        0.69435789      -9.08719780       3.03153199
C        1.02103848      -9.05745599       1.67837893
Br      -0.05897736      -9.97614323       0.42907009
C        2.13911947      -8.35299976       1.24230482
C        2.92908146      -7.66764797       2.16944051
H        5.41686643      -6.10199903       5.70897911
H        4.85718524      -6.64836155       7.28530166
H        1.08781952      -0.94462858       3.67261391
H        2.68853922      -2.84593537       0.13551975
H        4.18241441      -6.41464522       3.94668096
H        1.21225261      -8.46098053       5.00568100
H       -0.17901038      -9.63142294       3.38110754
H        2.40523883      -8.32834672       0.18918976
H        3.79593940      -7.11764743       1.80982523
C       -0.00445707       0.01189536      -1.78238275
H       -0.66409135       0.67374010      -2.43557963
H        0.65740317      -0.63156657      -2.45157240
C       -0.90989263      -0.90692880      -0.91072765
C        0.90977584       0.90977584      -0.90977584
C       -0.00465871       1.77757030       0.00794375
H       -0.66225468       2.44313916      -0.64384735
H        0.64322798       2.43503045       0.67728295
C       -1.78241447       0.00034974      -0.00472694
H       -2.45427497      -0.65498947       0.64260836
H       -2.43311707       0.67328779      -0.65473579
C       -0.91132561       0.90220522       0.91563759
C       -0.01476271      -0.02253852       1.78660255
H       -0.67934791      -0.69751639       2.42135241
H        0.63392994       0.61504881       2.47327442
C        0.01484550      -1.77751727      -0.01636693
H        0.67870853      -2.42144646      -0.68295456
H       -0.62264859      -2.45592969       0.64226336
C        1.78714474       0.01002794       0.00389507
H        2.44202412       0.67113390       0.66197326
H        2.45385902      -0.65136977      -0.64189061
C        0.91606151      -0.90478549       0.90901405
