190
Properties=species:S:1:pos:R:3 pbc="F F F"
C        1.79227958       1.79227958      -1.79227958
C        1.32551551       3.03466410      -2.21942733
C        2.14007837       3.84702570      -3.01655195
C        3.42650910       3.42916532      -3.37941007
C        3.86424064       2.16480575      -2.95867293
C        3.05812423       1.35021984      -2.16142777
C        4.26524205       4.29793028      -4.22356680
C        5.59682810       4.44318818      -4.07819488
N        6.50446184       3.92959272      -3.19034280
C        7.69942442       4.43174038      -3.55234658
C        8.88041371       4.22858901      -2.72415826
C        9.04348422       4.97287942      -1.54987961
C       10.16690597       4.78660972      -0.74353762
C       11.13373724       3.84901779      -1.10732080
C       10.96697236       3.10046682      -2.27325817
Br      12.27762090       1.82620235      -2.76050374
C        9.84491210       3.28078716      -3.07807687
N        7.62870109       5.21724364      -4.66972521
N        8.62602666       6.10632563      -5.08699594
C        9.74209215       5.49360805      -5.71109138
C        9.62235863       4.36853535      -6.53746678
C       10.74640293       3.79851369      -7.14197213
C       12.00281568       4.37207099      -6.96063489
C       12.13151923       5.52596592      -6.19160184
C       11.00556872       6.09038090      -5.58569509
C        6.30070498       5.37321834      -5.06001090
O        5.78766684       6.07735363      -5.91354513
H        0.33923969       3.38569066      -1.93318456
H        1.77753082       4.82076110      -3.33558414
H        4.85916618       1.82005607      -3.23828298
H        3.44074409       0.38861803      -1.83405401
H        3.74446214       4.85420749      -4.99795588
H        8.27272716       5.68662352      -1.26685821
H       10.27518364       5.36489743       0.16853154
H       12.00276770       3.70276844      -0.47433663
H        9.70184006       2.69426273      -3.98085306
H        8.90383760       6.66606908      -4.28723172
H        8.64623239       3.91172298      -6.68554116
H       10.63298937       2.90338428      -7.74598747
H       12.87732522       3.92262407      -7.42108223
H       13.10564522       5.98558363      -6.05528404
H       11.12122205       6.98929139      -4.98711808
C       -1.79227958      -1.79227958      -1.79227958
C       -2.58628629      -1.21248766      -2.78083300
C       -3.38372508      -2.02328874      -3.59664219
C       -3.38232221      -3.41470081      -3.43806147
C       -2.59470733      -3.97261098      -2.42040101
C       -1.79500180      -3.17024563      -1.60452440
C       -4.23342184      -4.24898065      -4.30433665
C       -3.87478009      -5.45354280      -4.78988827
N       -2.73268898      -6.20274427      -4.68896411
C       -2.96871441      -7.33062229      -5.38417468
C       -1.90550621      -8.29480697      -5.63284780
C       -0.93526016      -8.02567415      -6.60530895
C        0.09207661      -8.93707825      -6.85205166
C        0.15604877     -10.12413311      -6.12199148
C       -0.80594462     -10.38856522      -5.14618750
Br      -0.71282440     -11.99695866      -4.15454393
C       -1.83014352      -9.47923133      -4.89440129
N       -4.23412132      -7.38087391      -5.90067471
N       -4.65344058      -8.25978088      -6.90612676
C       -4.88655272      -9.58906459      -6.47117426
C       -5.42604375      -9.88893718      -5.21337982
C       -5.64922623     -11.21293376      -4.82472876
C       -5.37351158     -12.25526057      -5.70674941
C       -4.89378917     -11.97215902      -6.98313881
C       -4.66829314     -10.64708637      -7.36626519
C       -4.89742711      -6.18076670      -5.65574041
O       -5.97696279      -5.76236014      -6.03924266
H       -2.58705870      -0.13791916      -2.93313705
H       -3.99041919      -1.56821680      -4.37524007
H       -2.58747108      -5.05261749      -2.27741666
H       -1.17943397      -3.64009435      -0.84388782
H       -5.20364642      -3.83254931      -4.56042978
H       -0.98482186      -7.08748884      -7.15389819
H        0.84210442      -8.71051185      -7.60314209
H        0.96005697     -10.82735458      -6.31257517
H       -2.57601796      -9.67203271      -4.12890517
H       -3.97336093      -8.22505506      -7.65872242
H       -5.64440546      -9.08301000      -4.51608108
H       -6.03105112     -11.42141705      -3.82989295
H       -5.53633302     -13.28411177      -5.40058673
H       -4.68767248     -12.77846552      -7.68037489
H       -4.29212186     -10.44131487      -8.36419478
C       -1.79227958       1.79227958       1.79227958
C       -1.98066313       1.46464656       3.13429725
C       -2.77841577       2.28113784       3.94410240
C       -3.37999324       3.43299996       3.42209130
C       -3.19640952       3.72806608       2.06324372
C       -2.40008576       2.91953901       1.25014706
C       -4.22015693       4.27550835       4.29107385
C       -4.25736773       5.62135691       4.23948652
N       -3.58876424       6.54945215       3.48618098
C       -4.05681401       7.74891574       3.87778163
C       -3.44728021       8.98354864       3.40233213
C       -2.22410726       9.40632976       3.93580623
C       -1.62522284      10.58421780       3.48761267
C       -2.24731566      11.34516636       2.49759380
C       -3.46231205      10.91920778       1.95917751
Br      -4.30026254      11.95103810       0.61302635
C       -4.06067601       9.74196461       2.40113552
N       -5.04001129       7.65209626       4.82356240
N       -5.48270451       8.70834638       5.62829734
C       -6.34019491       9.63034034       4.97625633
C       -7.27804721       9.23829500       4.01201854
C       -8.11199750      10.17701111       3.39788013
C       -8.04731949      11.51767270       3.77052937
C       -7.16328862      11.91538810       4.77041028
C       -6.32840586      10.97414876       5.37909008
C       -5.20444866       6.32298305       5.20650252
O       -5.87358097       5.81456540       6.09041923
H       -1.50759037       0.58715414       3.56337041
H       -2.91111305       2.02960966       4.99315335
H       -3.66345736       4.61583211       1.63821577
H       -2.26063340       3.19363288       0.20914986
H       -4.82968104       3.74769970       5.01924477
H       -1.73938554       8.79377351       4.69304984
H       -0.67241202      10.89460472       3.90453278
H       -1.77527281      12.25720247       2.14739750
H       -5.00025530       9.39744265       1.97925789
H       -4.66766305       9.16763273       6.02184262
H       -7.33679599       8.19411326       3.71258728
H       -8.80305209       9.85421687       2.62509216
H       -8.68724200      12.24838245       3.28540707
H       -7.11540383      12.95650582       5.07460323
H       -5.64252720      11.29899865       6.15610567
C        1.79227958      -1.79227958       1.79227958
C        3.12465948      -2.01049968       1.44444778
C        3.93479750      -2.80813813       2.26072037
C        3.42303037      -3.37981405       3.43224008
C        2.07315601      -3.16666469       3.74789863
C        1.25984540      -2.37025495       2.93967148
C        4.29204591      -4.22045418       4.27423906
C        4.26400032      -4.23297103       5.62123980
N        3.53941111      -3.53466271       6.55032354
C        3.94417804      -3.98842886       7.75090447
C        3.50182196      -3.34875338       8.98258563
C        4.06431325      -2.12809154       9.37383847
C        3.64799689      -1.50055340      10.54850302
C        2.66098442      -2.09122891      11.33786248
C        2.09363975      -3.30368407      10.94337352
Br       0.75166512      -4.09896854      12.01369333
C        2.50374330      -3.93057850       9.76945434
N        4.87056497      -4.99001692       7.65508806
N        5.68620942      -5.42838558       8.70475323
C        5.03580631      -6.25761421       9.65337106
C        4.04827638      -7.18476346       9.29532092
C        3.43647981      -7.99084532      10.25956362
C        3.83424142      -7.90921992      11.59206022
C        4.85655506      -7.03641538      11.95611656
C        5.46286588      -6.22934780      10.98943102
C        5.22659968      -5.18474261       6.32259194
O        6.08929005      -5.87851879       5.81075677
H        3.54617983      -1.56077496       0.55116012
H        4.97665398      -2.96408230       1.99313978
H        1.65597053      -3.61025774       4.65127697
H        0.22656481      -2.20730426       3.22954708
H        4.99974361      -4.85218489       3.74469702
H        4.81886591      -1.66794180       8.73940118
H        4.08717958      -0.55005751      10.83431244
H        2.33561857      -1.59694539      12.24730882
H        2.05922489      -4.86836049       9.44937047
H        6.10226839      -4.61256715       9.14230286
H        3.72914132      -7.25654399       8.25781122
H        2.64593942      -8.67349279       9.96292891
H        3.35110730      -8.52732519      12.34259903
H        5.18020349      -6.97563503      12.99067437
H        6.25757811      -5.55191430      11.28813911
C       -0.00445707       0.01189536      -1.78238275
H       -0.66409135       0.67374010      -2.43557963
H        0.65740317      -0.63156657      -2.45157240
C       -0.90989263      -0.90692880      -0.91072765
C        0.90977584       0.90977584      -0.90977584
C       -0.00465871       1.77757030       0.00794375
H       -0.66225468       2.44313916      -0.64384735
H        0.64322798       2.43503045       0.67728295
C       -1.78241447       0.00034974      -0.00472694
H       -2.45427497      -0.65498947       0.64260836
H       -2.43311707       0.67328779      -0.65473579
C       -0.91132561       0.90220522       0.91563759
C       -0.01476271      -0.02253852       1.78660255
H       -0.67934791      -0.69751639       2.42135241
H        0.63392994       0.61504881       2.47327442
C        0.01484550      -1.77751727      -0.01636693
H        0.67870853      -2.42144646      -0.68295456
H       -0.62264859      -2.45592969       0.64226336
C        1.78714474       0.01002794       0.00389507
H        2.44202412       0.67113390       0.66197326
H        2.45385902      -0.65136977      -0.64189061
C        0.91606151      -0.90478549       0.90901405
