169
Properties=species:S:1:pos:R:3 pbc="F F F"
C        0.00000000       0.00000000       0.00000000
C        0.88237556       0.88237556      -0.88237556
C        0.41561149       2.12476007      -1.30952330
C        1.23017434       2.93712167      -2.10664792
C        2.51660508       2.51926129      -2.46950605
C        2.95433662       1.25490173      -2.04876891
C        2.14822020       0.44031582      -1.25152374
C        3.35533803       3.38802625      -3.31366278
C        4.68692407       3.53328416      -3.16829086
N        5.59455782       3.01968869      -2.28043877
C        6.78952039       3.52183636      -2.64244255
C        7.97050969       3.31868498      -1.81425423
C        8.13358020       4.06297540      -0.63997558
C        9.25700194       3.87670570       0.16636640
C       10.22383322       2.93911376      -0.19741677
C       10.05706833       2.19056279      -1.36335414
Br      11.36771688       0.91629833      -1.85059971
C        8.93500808       2.37088314      -2.16817285
N        6.71879707       4.30733962      -3.75982118
N        7.71612264       5.19642161      -4.17709191
C        8.83218812       4.58370402      -4.80118735
C        8.71245461       3.45863132      -5.62756275
C        9.83649890       2.88860966      -6.23206811
C       11.09291166       3.46216696      -6.05073086
C       11.22161520       4.61606190      -5.28169782
C       10.09566469       5.18047687      -4.67579107
C        5.39080096       4.46331432      -4.15010688
O        4.87776282       5.16744961      -5.00364110
H       -0.57066433       2.47578664      -1.02328053
H        0.86762680       3.91085707      -2.42568011
H        3.94926216       0.91015205      -2.32837896
H        2.53084007      -0.52128599      -0.92414999
H        2.83455812       3.94430347      -4.08805186
H        7.36282314       4.77671949      -0.35695419
H        9.36527962       4.45499340       1.07843557
H       11.09286368       2.79286441       0.43556739
H        8.79193603       1.78435871      -3.07094903
H        7.99393357       5.75616505      -3.37732770
H        7.73632837       3.00181896      -5.77563714
H        9.72308534       1.99348025      -6.83608345
H       11.96742119       3.01272005      -6.51117821
H       12.19574119       5.07567961      -5.14538001
H       10.21131802       6.07938737      -4.07721405
C       -0.88237556      -0.88237556      -0.88237556
C       -0.68098856      -2.26174945      -0.90715685
C       -1.49855611      -3.06965551      -1.70573232
C       -2.52698039      -2.50673474      -2.47165729
C       -2.69390658      -1.11429373      -2.44980694
C       -1.88374218      -0.30252357      -1.65379401
C       -3.37248931      -3.37520499      -3.30933277
C       -4.69585872      -3.20035017      -3.49229019
N       -5.59900758      -2.29640540      -2.99927232
C       -6.78309307      -2.61938005      -3.55132619
C       -8.01324909      -1.96761176      -3.12258806
C       -8.60381009      -2.32725472      -1.90546637
C       -9.77964162      -1.70896956      -1.47873005
C      -10.37002706      -0.72198959      -2.26834711
C       -9.77657772      -0.35689760      -3.47750994
Br     -10.57726986       0.98568266      -4.54302772
C       -8.60077962      -0.96889411      -3.90439034
N       -6.69320916      -3.66800663      -4.42474209
N       -7.78127944      -4.41088760      -4.89746911
C       -8.54422228      -3.76790818      -5.90494904
C       -7.96595641      -2.94897756      -6.88371471
C       -8.75166396      -2.33946281      -7.86604990
C      -10.12408273      -2.57437841      -7.90734834
C      -10.70659539      -3.43370346      -6.97907606
C       -9.91790567      -4.03795605      -5.99607091
C       -5.40204531      -4.19045387      -4.41172297
O       -4.92800878      -5.18393370      -4.93691104
H        0.09777005      -2.72012003      -0.30605286
H       -1.34704953      -4.14594501      -1.71116945
H       -3.48383158      -0.65832072      -3.04564086
H       -2.05907352       0.76864299      -1.64327354
H       -2.86856913      -4.21009018      -3.78825414
H       -8.12286489      -3.08413638      -1.28949555
H      -10.22105688      -1.99226484      -0.52851573
H      -11.28092926      -0.23924963      -1.92998181
H       -8.12630778      -0.68254139      -4.83839460
H       -8.35457256      -4.67137269      -4.10148107
H       -6.89528142      -2.75779207      -6.86071097
H       -8.28545807      -1.67758852      -8.58960246
H      -10.73582305      -2.09195714      -8.66353925
H      -11.77370610      -3.63103348      -7.01206123
H      -10.38609908      -4.70436354      -5.27745682
C       -0.88237556       0.88237556       0.88237556
C       -2.23102547       0.57032610       1.04854330
C       -3.03450838       1.37196223       1.86747333
C       -2.49340092       2.47895428       2.53301722
C       -1.14025725       2.78742269       2.33032731
C       -0.33228387       1.99093364       1.51684225
C       -3.35851359       3.31236976       3.38614371
C       -2.97030130       3.86726243       4.55093536
N       -1.80360670       3.82403186       5.26704672
C       -2.01008684       4.58852425       6.35518821
C       -1.03103409       4.63985821       7.43255660
C       -0.93049317       3.57291642       8.33312159
C        0.00532416       3.60505193       9.36761347
C        0.85038682       4.70659903       9.50415155
C        0.75647689       5.76639526       8.60106689
Br       1.90776515       7.25608812       8.78629195
C       -0.17344050       5.73569317       7.56493040
N       -3.24616328       5.17380236       6.36599223
N       -3.84756397       5.75228511       7.48978707
C       -3.34860968       7.03398158       7.83448824
C       -2.95106516       7.97347560       6.87410792
C       -2.47242214       9.23056047       7.25419406
C       -2.42352059       9.58071891       8.60156999
C       -2.87151197       8.68167878       9.56618417
C       -3.34562799       7.42425964       9.18204501
C       -4.00008668       4.71637557       5.28775990
O       -5.17170278       4.88395512       4.99319562
H       -2.66552159      -0.29442420       0.55730545
H       -4.08203152       1.11684421       2.00528825
H       -0.70435392       3.64963522       2.83380402
H        0.71662151       2.24644592       1.40387966
H       -4.37456885       3.46099288       3.03135171
H       -1.58158861       2.71094752       8.20396069
H        0.07741573       2.76642521      10.05282797
H        1.58093755       4.72492964      10.30616862
H       -0.24517878       6.55100325       6.85106174
H       -3.76731553       5.09831491       8.26179589
H       -2.98415937       7.71061730       5.81900779
H       -2.13320706       9.92651730       6.49292469
H       -2.04117895      10.55292880       8.89721170
H       -2.84755667       8.95175803      10.61748611
H       -3.69000409       6.73255167       9.94536368
C        0.88237556      -0.88237556       0.88237556
C        2.20962779      -0.52475534       1.11551174
C        3.01243007      -1.32702446       1.93448941
C        2.49125930      -2.48059321       2.53351990
C        1.16080560      -2.83332459       2.26387706
C        0.35351661      -2.03659236       1.44995080
C        3.35554884      -3.31357056       3.38790766
C        2.94494701      -3.93029497       4.51325711
N        1.75029558      -3.96205887       5.18233084
C        1.94498660      -4.76161780       6.24719491
C        0.92737751      -4.89517636       7.28089504
C        0.74819162      -3.87061311       8.21772646
C       -0.22535417      -3.98156097       9.21113444
C       -1.02948621      -5.12002790       9.26982207
C       -0.85711340      -6.13761410       8.33048456
Br      -1.95305760      -7.67759086       8.41008166
C        0.11066479      -6.02826149       7.33513779
N        3.20253236      -5.29796323       6.28546228
N        3.78252798      -5.89778925       7.40931892
C        3.32314089      -7.21104494       7.68289367
C        3.00218445      -8.12544256       6.67102167
C        2.56068572      -9.41477336       6.98171759
C        2.47334640      -9.82124214       8.31122094
C        2.84615301      -8.94542954       9.32779237
C        3.28327718      -7.65577709       9.01287837
C        3.97884327      -4.76774851       5.25763037
O        5.16696150      -4.87713508       5.00475695
H        2.62740775       0.37567249       0.67666758
H        4.04247062      -1.03688798       2.12480539
H        0.74103758      -3.73177305       2.71498253
H       -0.67886174      -2.32819027       1.28437554
H        4.38994215      -3.40767032       3.06930097
H        1.36814940      -2.97924247       8.14910495
H       -0.35838546      -3.17504912       9.92517379
H       -1.78954737      -5.19966765      10.04004043
H        0.24351519      -6.81033916       6.59338942
H        3.64548325      -5.27949799       8.20244508
H        3.06584938      -7.81867448       5.62926060
H        2.28023005     -10.09185900       6.18056000
H        2.11968488     -10.81893617       8.55269840
H        2.79205572      -9.25889399      10.36585111
H        3.56897860      -6.98281485       9.81612599
