194
Properties=species:S:1:pos:R:3 pbc="F F F"
C        1.79208694       1.79208694      -1.79208694
C        1.58615543       3.16659456      -1.82080774
C        2.39511783       3.96663136      -2.63435789
C        3.41584910       3.41313368      -3.42534456
C        3.60407707       2.02541901      -3.37281685
C        2.79687897       1.21596172      -2.56367562
C        4.25278412       4.26284081      -4.28387474
N        4.01437293       5.57777145      -4.42684008
N        4.95716944       6.08618670      -5.39771907
C        5.30947406       7.42873726      -5.47430070
O        6.35486017       7.82408117      -5.99669555
C        4.39422371       8.45641017      -4.90380160
C        4.95464215       9.56648307      -4.25723519
C        4.13429912      10.57457594      -3.74641184
C        2.75082329      10.47689154      -3.89579987
Br       1.63649960      11.84135059      -3.20557704
C        2.18177767       9.38739020      -4.55466761
C        3.00529939       8.38145459      -5.06586668
C        5.82151720       5.01760477      -5.89132882
H        6.86244082       5.28842706      -5.67078750
C        5.42249981       3.78168738      -5.08506858
C        5.65062770       4.82772558      -7.39281427
C        6.78593225       4.79902350      -8.22036551
C        6.66579335       4.58662340      -9.59682657
C        5.40903108       4.38852231     -10.16565231
C        4.27090979       4.43098841      -9.36254905
C        4.39432171       4.66944654      -7.99525294
O        3.23237578       4.77117940      -7.27987705
H        0.80830981       3.63312793      -1.22626290
H        2.22686697       5.04179286      -2.65187626
H        4.37828642       1.55625761      -3.97123870
H        2.96398943       0.14363551      -2.55164185
H        6.03598233       9.63217308      -4.15095071
H        4.58339819      11.42286556      -3.23925819
H        1.10642149       9.30356967      -4.67732093
H        2.57105546       7.53154002      -5.58698358
H        5.17338903       2.92286765      -5.71714638
H        6.23784204       3.48735216      -4.41349635
H        7.77111357       4.96459870      -7.78957601
H        7.55379659       4.58434339     -10.22114809
H        5.31226858       4.22067341     -11.23325013
H        3.28391866       4.29866258      -9.79484002
H        3.48654697       5.13021369      -6.38747016
C       -1.79208694      -1.79208694      -1.79208694
C       -3.12411855      -1.45166377      -1.99777541
C       -3.92613111      -2.26688204      -2.80309394
C       -3.41611261      -3.42528131      -3.41293341
C       -2.06876535      -3.74132442      -3.19222316
C       -1.25889680      -2.93282415      -2.38479535
C       -4.27125952      -4.27944025      -4.24879990
N       -5.58869766      -4.04896855      -4.38131825
N       -6.13596520      -5.11478293      -5.19032708
C       -7.32779490      -4.98986063      -5.89485649
O       -7.61540743      -5.69413730      -6.86609214
C       -8.31977184      -3.96158628      -5.47307736
C       -9.03677697      -3.27743573      -6.46414771
C      -10.00689806      -2.33686278      -6.11152605
C      -10.26861834      -2.09136864      -4.76352772
Br     -11.58291769      -0.81822446      -4.28228508
C       -9.57627135      -2.77983135      -3.76773279
C       -8.60755663      -3.72120540      -4.12385864
C       -5.09474607      -6.06576940      -5.56993532
H       -5.04950148      -6.10593163      -6.66622228
C       -3.79824449      -5.47492452      -5.01608677
C       -5.39716768      -7.45365008      -5.02034979
C       -5.36013787      -8.56258658      -5.88259681
C       -5.59359890      -9.85417611      -5.40146829
C       -5.85684256     -10.05816800      -4.04819514
C       -5.91447222      -8.96805900      -3.18191603
C       -5.70719341      -7.68013571      -3.67169207
O       -5.85098346      -6.65135533      -2.78109344
H       -3.55678051      -0.56657128      -1.54434884
H       -4.96821399      -1.99389448      -2.95842762
H       -1.63560999      -4.62953957      -3.64063317
H       -0.22131398      -3.20994249      -2.22801032
H       -8.82537980      -3.48143579      -7.51229053
H      -10.54633011      -1.80802729      -6.89116454
H       -9.77428590      -2.59684852      -2.71617768
H       -8.06739903      -4.26774384      -3.35443619
H       -3.24107946      -6.18094191      -4.39138169
H       -3.14558443      -5.15570416      -5.83740196
H       -5.16777585      -8.41443261      -6.94307982
H       -5.57664183     -10.69570742      -6.08693882
H       -6.03582644     -11.05958081      -3.67078488
H       -6.13858531      -9.10965911      -2.12917683
H       -5.86602533      -5.81634458      -3.32186091
C       -1.79208694       1.79208694       1.79208694
C       -1.92398958       1.50393906       3.14562910
C       -2.73693283       2.31375540       3.94541885
C       -3.42512680       3.41664262       3.41255792
C       -3.26973850       3.68640688       2.04616755
C       -2.46045634       2.87922037       1.23683959
C       -4.28441028       4.25421126       4.26087813
N       -4.52817191       3.94492667       5.54588588
N       -5.47031296       4.91642045       6.05434180
C       -5.61327334       5.18935474       7.40988395
O       -6.09497298       6.24045454       7.84020936
C       -5.16939137       4.17673966       8.40830446
C       -4.56397957       4.62365385       9.59072698
C       -4.17237339       3.71070039      10.57221310
C       -4.40021901       2.34876310      10.37453258
Br      -3.87159874       1.10918471      11.70264378
C       -5.01977059       1.89279617       9.21126872
C       -5.41169663       2.80880675       8.23211728
C       -5.83807036       5.87580292       5.01657751
H       -5.57194250       6.88119949       5.36851340
C       -4.97832880       5.50167503       3.80925195
C       -7.33146570       5.81628649       4.72341536
C       -8.08357441       7.00325302       4.71849382
C       -9.44783600       6.98743320       4.41397411
C      -10.07895579       5.78553594       4.09871396
C       -9.35227614       4.59652448       4.11564663
C       -7.99865679       4.61459734       4.44576705
O       -7.36472356       3.40397641       4.51473225
H       -1.41069224       0.66126340       3.59574500
H       -2.83562490       2.08089690       5.00401428
H       -3.78694856       4.52587904       1.59295512
H       -2.36748375       3.11112930       0.18065373
H       -4.39562639       5.68950868       9.73397105
H       -3.69543438       4.07211634      11.47797123
H       -5.20286113       0.83510004       9.04935093
H       -5.90151661       2.46320573       7.32485672
H       -5.56662703       5.34831213       2.89846390
H       -4.23971593       6.28762184       3.61135280
H       -7.60456812       7.94578591       4.97493425
H      -10.01457150       7.91308508       4.43163149
H      -11.13710806       5.76989124       3.85919284
H       -9.83508055       3.65023316       3.89210755
H       -6.48391520       3.57611399       4.94420163
C        1.79208694      -1.79208694       1.79208694
C        3.11378280      -2.02812092       1.43165401
C        3.91342257      -2.84040591       2.24227860
C        3.41206047      -3.42483040       3.41743646
C        2.07780349      -3.16568739       3.75882205
C        1.26861074      -2.35627546       2.95163011
C        4.25902450      -4.28472162       4.25575355
N        5.50432305      -4.62904011       3.88562130
N        6.01636784      -5.54146211       4.88324527
C        7.37553773      -5.75468468       5.08228961
O        7.84275123      -6.19861615       6.13426951
C        8.33166840      -5.43814932       3.98461775
C        9.57489488      -4.88424629       4.31921924
C       10.51741520      -4.61265983       3.32521187
C       10.21896919      -4.90929646       1.99524905
Br      11.49400460      -4.54333179       0.64609083
C        8.99338743      -5.47906616       1.65138189
C        8.05337026      -5.75093667       2.64831374
C        5.02222435      -5.78285738       5.92536906
H        5.45366636      -5.47960376       6.88838527
C        3.84754794      -4.87133302       5.57037482
C        4.63600005      -7.25511989       5.98004760
C        4.66206017      -7.93213639       7.21112470
C        4.27515290      -9.27239451       7.30169590
C        3.84549433      -9.95346588       6.16424548
C        3.82972769      -9.30267655       4.93204300
C        4.24163659      -7.97453215       4.84285245
O        4.27069380      -7.42078642       3.59195200
H        3.53890531      -1.59683000       0.53196532
H        4.94689839      -3.02100972       1.95262797
H        1.64915339      -3.60087006       4.65575927
H        0.23712775      -2.18158146       3.24055758
H        9.79644037      -4.66127970       5.36138605
H       11.47177680      -4.17407498       3.59967015
H        8.75287511      -5.71501553       0.61942145
H        7.09775156      -6.20129818       2.39052932
H        2.89484208      -5.40792645       5.51063454
H        3.74576098      -4.07529786       6.31763172
H        5.00721282      -7.41448907       8.10358639
H        4.31808494      -9.78203204       8.25917109
H        3.54186715     -10.99299026       6.23133472
H        3.51687559      -9.82645443       4.03409123
H        4.76287644      -6.56067989       3.68067448
C       -0.00445707       0.01189536      -1.78238275
H       -0.66409135       0.67374010      -2.43557963
H        0.65740317      -0.63156657      -2.45157240
C       -0.90989263      -0.90692880      -0.91072765
C        0.90977584       0.90977584      -0.90977584
C       -0.00465871       1.77757030       0.00794375
H       -0.66225468       2.44313916      -0.64384735
H        0.64322798       2.43503045       0.67728295
C       -1.78241447       0.00034974      -0.00472694
H       -2.45427497      -0.65498947       0.64260836
H       -2.43311707       0.67328779      -0.65473579
C       -0.91132561       0.90220522       0.91563759
C       -0.01476271      -0.02253852       1.78660255
H       -0.67934791      -0.69751639       2.42135241
H        0.63392994       0.61504881       2.47327442
C        0.01484550      -1.77751727      -0.01636693
H        0.67870853      -2.42144646      -0.68295456
H       -0.62264859      -2.45592969       0.64226336
C        1.78714474       0.01002794       0.00389507
H        2.44202412       0.67113390       0.66197326
H        2.45385902      -0.65136977      -0.64189061
C        0.91606151      -0.90478549       0.90901405
