185
Properties=species:S:1:pos:R:3 pbc="F F F"
C        0.00000000       0.00000000       0.00000000
C        0.88146766       0.88146766      -0.88146766
C        0.43135214       2.13771598      -1.27936618
C        1.24272660       2.94255051      -2.08677375
C        2.50753772       2.50191852      -2.50330889
C        2.93910862       1.23344658      -2.09039605
C        2.13330558       0.42535695      -1.28421755
C        3.32805150       3.38206908      -3.34899862
H        2.90426744       4.34963753      -3.61346295
C        4.65251723       3.13693959      -3.87803944
C        5.35645977       4.01115386      -4.62163102
N        5.08453743       5.26687420      -5.05948942
N        6.18155340       5.66803716      -5.97353170
C        6.37147794       6.95770474      -6.47407675
C        7.49703653       7.32232146      -7.22789080
C        7.68490845       8.62988359      -7.69590759
C        6.73515021       9.60947837      -7.42806485
C        5.60056247       9.27558745      -6.69686475
C        5.42920943       7.96750442      -6.22814263
C        7.09740005       4.55220278      -6.20190393
H        8.13963136       4.86916650      -6.06655960
C        6.74104561       3.58776261      -5.07437157
C        6.94522233       3.90169597      -7.57600945
C        5.71196539       3.86526612      -8.24643462
C        5.58334637       3.23435863      -9.48514476
C        6.69262036       2.62356047     -10.06209159
C        7.92628771       2.63755006      -9.41264413
C        8.04999964       3.27241226      -8.17373260
H       -0.54374200       2.50380392      -0.97077942
H        0.88173134       3.92272607      -2.39128624
H        3.91252826       0.85597730      -2.39165753
H        2.49562686      -0.55263413      -0.98026250
H        5.10680176       2.18011465      -3.64969404
H        8.25746584       6.58580729      -7.46154179
H        8.57667049       8.87124565      -8.26576852
H        6.87699944      10.62322056      -7.78717653
H        4.84403508      10.02193391      -6.48049974
H        4.54048768       7.71897968      -5.65440670
H        6.79035537       2.53545537      -5.37687807
H        7.43630732       3.73306375      -4.23556696
H        4.84672670       4.34124323      -7.78320344
H        4.61574921       3.22896958      -9.97608000
H        8.79317290       2.15734565      -9.85621627
H        9.01165482       3.27423912      -7.66701719
C        6.56633529       1.96726812     -11.33760421
C        6.46057155       1.41762328     -12.40584602
Br       6.28956052       0.52889406     -14.13310269
C       -0.88146766      -0.88146766      -0.88146766
C       -2.12705827      -0.42095656      -1.30041946
C       -2.93144990      -1.23189901      -2.10870194
C       -2.50098425      -2.50662643      -2.50515446
C       -1.24339305      -2.94881045      -2.07074775
C       -0.43583126      -2.14352227      -1.26352655
C       -3.37775089      -3.32383952      -3.35752878
H       -4.33445990      -2.88946312      -3.64344491
C       -3.13204377      -4.64774182      -3.88771068
C       -3.97484207      -5.32104108      -4.69336150
N       -5.18766985      -5.00728116      -5.21595004
N       -5.70308863      -6.21574275      -5.90429088
C       -6.82665708      -6.24365348      -6.73294887
C       -7.20036083      -7.37807559      -7.46881236
C       -8.31443953      -7.37722293      -8.31903717
C       -9.09508305      -6.23340676      -8.44420362
C       -8.75987907      -5.09753825      -7.71559736
C       -7.63947624      -5.10924930      -6.87613095
C       -4.81741581      -7.35609001      -5.67800095
H       -4.58739627      -7.86479145      -6.62316974
C       -3.54024608      -6.69469779      -5.16823592
C       -5.36731011      -8.37478879      -4.68082885
C       -6.20681952      -7.99592686      -3.62091975
C       -6.67038267      -8.93485931      -2.69760779
C       -6.28799321     -10.26692416      -2.82335506
C       -5.44773242     -10.66735193      -3.86139756
C       -4.98827222      -9.72365698      -4.78421531
H       -2.48475468       0.56232271      -1.00840937
H       -3.90256310      -0.86206429      -2.43111626
H       -0.87381792      -3.92993008      -2.35641510
H        0.53390950      -2.51389094      -0.94327379
H       -2.19662066      -5.12290181      -3.61708798
H       -6.61976454      -8.29058789      -7.39446250
H       -8.56076094      -8.27382234      -8.87910138
H       -9.95756481      -6.22771590      -9.10211581
H       -9.35731476      -4.19576265      -7.79339131
H       -7.38481082      -4.21453790      -6.31452533
H       -3.03521677      -7.27782484      -4.38964719
H       -2.83806007      -6.56331680      -6.00356116
H       -6.49587405      -6.94836306      -3.52693626
H       -7.32064871      -8.60679100      -1.89335908
H       -5.14207767     -11.70449364      -3.96016351
H       -4.32699078     -10.03851341      -5.58740695
C       -6.75890606     -11.24011998      -1.87218158
C       -7.15329557     -12.05517149      -1.07557380
Br      -7.79099004     -13.37304084       0.21247361
C       -0.88146766       0.88146766       0.88146766
C       -1.94888933       0.32113629       1.57840868
C       -2.75385772       1.13258888       2.38560425
C       -2.50135837       2.50721077       2.50419600
C       -1.42133368       3.04877607       1.79284150
C       -0.61412328       2.24348622       0.98527057
C       -3.37123760       3.32172930       3.36615230
H       -4.18219362       2.80653244       3.87864187
C       -3.28714199       4.74018858       3.64016570
C       -4.10550449       5.41153110       4.47220906
N       -5.15150975       5.01720059       5.24219072
N       -5.76369124       6.23738553       5.82204548
C       -6.73750792       6.24295170       6.82279982
C       -7.19161555       7.42074506       7.43488818
C       -8.14788103       7.40356934       8.45924926
C       -8.68608078       6.19617412       8.89043853
C       -8.26808138       5.01249327       8.29244002
C       -7.30597486       5.04308256       7.27579907
C       -5.13785166       7.43923628       5.27441883
H       -4.86260126       8.13579931       6.07695689
C       -3.85475322       6.89688483       4.65154174
C       -6.00237099       8.17136114       4.24919562
C       -6.91066710       7.48952941       3.42346963
C       -7.66603034       8.17005999       2.46675943
C       -7.51098009       9.54534857       2.32194377
C       -6.60904411      10.24440114       3.12303665
C       -5.85690315       9.55853597       4.08070538
H       -2.16654380      -0.74059668       1.50489421
H       -3.58478302       0.68447804       2.92648259
H       -1.19269164       4.10906438       1.85840708
H        0.21569614       2.69229352       0.44665784
H       -2.50181992       5.29457727       3.14021326
H       -6.79946740       8.38217669       7.12317083
H       -8.46231030       8.33797984       8.91339453
H       -9.42554393       6.17792996       9.68392264
H       -8.67799467       4.05959386       8.60888019
H       -6.98399385       4.11148526       6.81839494
H       -3.58326988       7.40195213       3.71746680
H       -3.02336465       7.02206447       5.35950892
H       -7.02052034       6.41058861       3.54006442
H       -8.36094600       7.61122229       1.84863050
H       -6.48048225      11.31653588       3.00971669
H       -5.14909221      10.10598408       4.69783484
C       -8.28372873      10.25317758       1.33430131
C       -8.93090572      10.84598438       0.50715075
Br      -9.97733617      11.80450284      -0.83028174
C        0.88146766      -0.88146766       0.88146766
C        0.46885756      -2.17045209       1.20912464
C        1.28011718      -2.97513104       2.01680263
C        2.50747213      -2.50175037       2.50354264
C        2.90166085      -1.20067992       2.16061049
C        2.09577687      -0.39257840       1.35452481
C        3.32947661      -3.38285756       3.34678503
H        2.93640371      -4.37698368       3.55398054
C        4.62006323      -3.10696955       3.94046349
C        5.32956157      -3.98256083       4.67712225
N        5.09320885      -5.26551229       5.05217992
N        6.16836405      -5.66016796       5.99459025
C        6.39197321      -6.96102087       6.45026535
C        7.50054756      -7.31130896       7.23539226
C        7.72417105      -8.62874204       7.65778653
C        6.82798511      -9.63371535       7.31099298
C        5.71077615      -9.31541517       6.54682335
C        5.50365005      -7.99676638       6.12444005
C        7.02656293      -4.51889514       6.30604870
H        8.08580092      -4.78761016       6.20194638
C        6.67575256      -3.52308348       5.20434375
C        6.79190499      -3.93336564       7.69765712
C        5.53217805      -3.97489385       8.31659424
C        5.32732165      -3.40229143       9.57323668
C        6.38578539      -2.77204499      10.22044204
C        7.64413331      -2.70897950       9.62336910
C        7.84426523      -3.28571932       8.36615995
H       -0.47675686      -2.56226932       0.84532888
H        0.94864146      -3.98099391       2.26610828
H        3.84542076      -0.79726039       2.51748194
H        2.42864567       0.61113374       1.10574330
H        5.04257991      -2.12385655       3.77017399
H        8.21931834      -6.55520100       7.53029558
H        8.60158389      -8.85768220       8.25441857
H        6.99770941     -10.65510682       7.63458030
H        4.99561681     -10.08190773       6.26894418
H        4.62912763      -7.76039028       5.52435613
H        6.66856525      -2.48328464       5.55083892
H        7.40976110      -3.60485933       4.39031760
H        4.70708539      -4.46548639       7.79860158
H        4.34134513      -3.45655424      10.02289941
H        8.47148472      -2.21327439      10.12197571
H        8.82479645      -3.22747689       7.90063780
C        6.18070844      -2.17555306      11.51494613
C        6.00895650      -1.67599106      12.59909329
Br       5.73124813      -0.86824156      14.35206757
