126
Properties=species:S:1:pos:R:3 pbc="F F F"
C        1.82366762       1.82366762      -1.82366762
C        1.18157410       1.99580788      -3.19242609
N        1.93400615       2.89615030      -4.03592590
C        3.02155376       2.43793009      -4.77430957
O        3.46392768       1.31277242      -4.86683591
C        3.61752226       3.68467239      -5.44991446
O        4.56460953       3.73153626      -6.20002167
C        2.80786293       4.80606791      -4.98191809
C        2.97831752       6.14305358      -5.28920019
C        2.08550766       7.02802933      -4.70643030
C        1.06722857       6.56649785      -3.85322027
C        0.90857170       5.19297311      -3.54733973
C       -0.22618175       4.80412397      -2.64924416
C        1.80864965       4.30340371      -4.13184216
H        2.80053709       1.33577742      -1.88830761
H        1.94059540       2.77465931      -1.29727738
H        0.13982898       2.31486789      -3.13199180
H        1.15456753       1.01735143      -3.69056899
H        3.77461297       6.46750033      -5.95068720
H        0.38089981       7.29443299      -3.41932832
H       -0.75449220       5.68391870      -2.26482040
H        0.13641960       4.25429905      -1.77767160
H       -0.96023872       4.20839747      -3.19969066
C        2.20149144       8.43768411      -4.97665457
C        2.29862785       9.61826999      -5.20296739
Br       2.45568921      11.52717751      -5.56889608
C       -1.82366762      -1.82366762      -1.82366762
C       -1.69623653      -1.39535150      -3.27822004
N       -2.44345549      -2.25705414      -4.16557272
C       -3.80237608      -2.04787012      -4.38354722
O       -4.52146728      -1.17416779      -3.94790094
C       -4.25984813      -3.20707053      -5.28519044
O       -5.36726885      -3.39733279      -5.73156582
C       -3.07714862      -4.04163872      -5.47706159
C       -2.99721226      -5.22322443      -6.19013460
C       -1.75934911      -5.84529572      -6.21532246
C       -0.65747744      -5.28397042      -5.54549883
C       -0.75788548      -4.07349893      -4.81750012
C        0.48327992      -3.54696772      -4.16349858
C       -2.00407106      -3.44947868      -4.79034578
H       -2.84842487      -1.72109526      -1.45510199
H       -1.49478855      -2.85392523      -1.66381831
H       -0.65817205      -1.32206532      -3.60645130
H       -2.10265421      -0.38008355      -3.37975019
H       -3.86618502      -5.63094014      -6.69567534
H        0.30126258      -5.80127158      -5.59465213
H        1.32149257      -4.24464621      -4.27109326
H        0.33055132      -3.40821917      -3.09072240
H        0.79050885      -2.60703572      -4.63132254
C       -1.59855184      -7.08197133      -6.93530695
C       -1.46388412      -8.11768715      -7.53829397
Br      -1.24613780      -9.79235205      -8.51327296
C       -1.82366762       1.82366762       1.82366762
C       -2.92447314       2.45861626       0.98671867
N       -3.84084599       3.23309234       1.79214401
C       -3.55056580       4.55158053       2.13164709
O       -2.59806905       5.23138691       1.81408005
C       -4.68910103       4.99874946       3.06425861
O       -4.83731385       6.08520544       3.57364818
C       -5.54806762       3.82821435       3.21956696
C       -6.68779135       3.72740670       3.99537324
C       -7.32865926       2.49891506       3.99239298
C       -6.82852474       1.42755150       3.23087046
C       -5.65780430       1.54777837       2.44330188
C       -5.22586952       0.35377624       1.64754062
C       -5.01204131       2.78312359       2.44873062
H       -1.17124682       2.57428494       2.27909036
H       -2.22098955       1.17922351       2.61231904
H       -3.47089157       1.72952016       0.38627695
H       -2.46141284       3.14035011       0.26072498
H       -7.04778784       4.57258792       4.57242474
H       -7.36549289       0.47861692       3.25055132
H       -5.85570651      -0.51826038       1.85680076
H       -4.20280501       0.06560823       1.89997701
H       -5.31285428       0.55854093       0.57645420
C       -8.52094453       2.31598593       4.77889966
C       -9.51948344       2.16278278       5.43759901
Br     -11.13403641       1.91506625       6.50266015
C        1.82366762      -1.82366762       1.82366762
C        3.12010969      -2.15191491       1.09778347
N        4.02879373      -2.91154628       1.92574234
C        3.91385442      -4.29536617       2.02457282
O        3.13983449      -5.04079330       1.46290822
C        4.96795142      -4.72507007       3.05908762
O        5.21928267      -5.84862512       3.42825967
C        5.59297102      -3.48700815       3.51586976
C        6.58040303      -3.35577669       4.47439157
C        7.00518233      -2.06578932       4.74899564
C        6.44809098      -0.96503624       4.07381947
C        5.43522757      -1.11765203       3.09600494
C        4.92942908       0.11803583       2.41579313
C        5.00644846      -2.41542000       2.82202706
H        1.24575243      -2.72284005       2.05602964
H        1.99526691      -1.26793239       2.74933279
H        3.61840601      -1.26486162       0.70342104
H        2.88163927      -2.76356126       0.21728741
H        6.98947321      -4.22510730       4.97821999
H        6.81406967       0.03368293       4.31427438
H        5.37208267       1.02362564       2.84578987
H        3.84779838       0.21441519       2.53500706
H        5.19828618       0.10590459       1.35546783
C        8.02897178      -1.84874785       5.73811048
C        8.88639545      -1.66697563       6.56649416
Br      10.27277699      -1.37306531       7.90592051
C       -0.00445707       0.01189536      -1.78238275
H       -0.66409135       0.67374010      -2.43557963
H        0.65740317      -0.63156657      -2.45157240
C       -0.90989263      -0.90692880      -0.91072765
C        0.90977584       0.90977584      -0.90977584
C       -0.00465871       1.77757030       0.00794375
H       -0.66225468       2.44313916      -0.64384735
H        0.64322798       2.43503045       0.67728295
C       -1.78241447       0.00034974      -0.00472694
H       -2.45427497      -0.65498947       0.64260836
H       -2.43311707       0.67328779      -0.65473579
C       -0.91132561       0.90220522       0.91563759
C       -0.01476271      -0.02253852       1.78660255
H       -0.67934791      -0.69751639       2.42135241
H        0.63392994       0.61504881       2.47327442
C        0.01484550      -1.77751727      -0.01636693
H        0.67870853      -2.42144646      -0.68295456
H       -0.62264859      -2.45592969       0.64226336
C        1.78714474       0.01002794       0.00389507
H        2.44202412       0.67113390       0.66197326
H        2.45385902      -0.65136977      -0.64189061
C        0.91606151      -0.90478549       0.90901405
