114
Properties=species:S:1:pos:R:3 pbc="F F F"
C        1.82586505       1.82586505      -1.82586505
C        2.24171743       3.09509258      -1.09157995
N        3.21190113       2.86528326      -0.04061182
C        4.54216525       2.55536663      -0.29149942
O        5.10805719       2.43733472      -1.35686104
C        5.19000905       2.37060769       1.10307698
O        6.34286769       2.10238304       1.34846598
C        4.11223970       2.59203017       2.06620716
C        4.15267545       2.53896950       3.44623990
C        2.95740194       2.79321583       4.11428550
C        1.77622837       3.08847846       3.40719999
C        1.76909944       3.13587897       2.00553643
C        2.95487090       2.88231007       1.34113622
H        1.21909350       2.06589849      -2.70340906
H        2.67754211       1.21267626      -2.13143368
H        1.37443310       3.63530664      -0.69900180
H        2.72352400       3.75901498      -1.82022347
H        5.07444316       2.30791831       3.96968214
H        0.85118846       3.28103203       3.94811323
H        0.84614475       3.35986143       1.48210582
C        2.92698341       2.75270271       5.55339405
C        2.90150789       2.71877297       6.75864745
Br       2.86031613       2.66391145       8.70744027
C       -1.82586505      -1.82586505      -1.82586505
C       -0.99204561      -2.58519199      -2.85115236
N       -0.19345363      -3.64827061      -2.27607197
C       -0.73729152      -4.83909754      -1.81264224
O       -1.89547043      -5.19655574      -1.81022678
C        0.46240081      -5.65270264      -1.26723793
O        0.43966559      -6.75804103      -0.77840931
C        1.63470419      -4.80255987      -1.47020704
C        2.95605176      -5.05013520      -1.15132160
C        3.86981130      -4.04562315      -1.46052041
C        3.45475049      -2.84488387      -2.06737347
C        2.10524381      -2.62509190      -2.37959390
C        1.19692178      -3.62110061      -2.07186592
H       -2.52352034      -1.14435362      -2.32052707
H       -2.38015988      -2.48686595      -1.15462622
H       -0.36202722      -1.90903277      -3.43768155
H       -1.68423821      -3.06238140      -3.55614283
H        3.25237874      -5.98256391      -0.68249416
H        4.18442032      -2.07046364      -2.29806395
H        1.80803384      -1.69017752      -2.84175667
C        5.26379911      -4.23625728      -1.15383390
C        6.43126390      -4.39591337      -0.89698394
Br       8.31895572      -4.65406375      -0.48167929
C       -1.82586505       1.82586505       1.82586505
C       -1.99233904       3.21495905       1.22109187
N       -2.83646478       3.23733505       0.04399638
C       -4.21496898       3.07747344       0.09658888
O       -4.92539075       2.91220872       1.06465348
C       -4.69148427       3.14170579      -1.37565029
O       -5.82546716       3.05703792      -1.78572032
C       -3.47850103       3.32987964      -2.17031795
C       -3.34363153       3.44251624      -3.54074273
C       -2.04982011       3.61349020      -4.02697805
C       -0.94532521       3.66768088      -3.15549924
C       -1.11647768       3.55133392      -1.76836962
C       -2.40037730       3.38020349      -1.28453605
H       -1.31565405       1.88122614       2.79152086
H       -2.77538077       1.29836805       1.94790322
H       -1.02449436       3.67862083       1.00562635
H       -2.48542811       3.84753557       1.96979876
H       -4.20934900       3.39632433      -4.19299400
H        0.05861953       3.79861758      -3.55589078
H       -0.25040739       3.59041169      -1.11691872
C       -1.83599529       3.73602893      -5.44573215
C       -1.65691700       3.83865512      -6.63393871
Br      -1.36736255       4.00459298      -8.55516822
C        1.82586505      -1.82586505       1.82586505
C        1.02152246      -2.44283283       2.96403467
N        0.10657972      -3.47946757       2.53174892
C        0.52603660      -4.73898981       2.12400489
O        1.65189849      -5.18423659       2.06611788
C       -0.76756090      -5.49437977       1.73072089
O       -0.86212421      -6.63039501       1.32851395
C       -1.85658237      -4.54371028       1.95093481
C       -3.21299533      -4.71055806       1.74784232
C       -4.02561600      -3.61875990       2.04318837
C       -3.47972153      -2.41327757       2.52395081
C       -2.09781693      -2.27671518       2.72054373
C       -1.28987916      -3.35953120       2.42639271
H        2.60682096      -1.16662947       2.21495061
H        2.27767648      -2.57424783       1.16972775
H        0.48894437      -1.67959853       3.54019864
H        1.73013979      -2.92030444       3.65231821
H       -3.61087839      -5.64850678       1.37505094
H       -4.13187287      -1.57016552       2.74581462
H       -1.69939304      -1.33684144       3.08645196
C       -5.44923193      -3.72248840       1.85303561
C       -6.64151028      -3.80936102       1.69378267
Br      -8.56932352      -3.94982670       1.43628414
C       -0.00445707       0.01189536      -1.78238275
H       -0.66409135       0.67374010      -2.43557963
H        0.65740317      -0.63156657      -2.45157240
C       -0.90989263      -0.90692880      -0.91072765
C        0.90977584       0.90977584      -0.90977584
C       -0.00465871       1.77757030       0.00794375
H       -0.66225468       2.44313916      -0.64384735
H        0.64322798       2.43503045       0.67728295
C       -1.78241447       0.00034974      -0.00472694
H       -2.45427497      -0.65498947       0.64260836
H       -2.43311707       0.67328779      -0.65473579
C       -0.91132561       0.90220522       0.91563759
C       -0.01476271      -0.02253852       1.78660255
H       -0.67934791      -0.69751639       2.42135241
H        0.63392994       0.61504881       2.47327442
C        0.01484550      -1.77751727      -0.01636693
H        0.67870853      -2.42144646      -0.68295456
H       -0.62264859      -2.45592969       0.64226336
C        1.78714474       0.01002794       0.00389507
H        2.44202412       0.67113390       0.66197326
H        2.45385902      -0.65136977      -0.64189061
C        0.91606151      -0.90478549       0.90901405
