106
Properties=species:S:1:pos:R:3 pbc="F F F"
C        1.82586505       1.82586505      -1.82586505
C        2.24171743       3.09509258      -1.09157995
N        3.21190113       2.86528326      -0.04061182
C        4.54216525       2.55536663      -0.29149942
O        5.10805719       2.43733472      -1.35686104
C        5.19000905       2.37060769       1.10307698
O        6.34286769       2.10238304       1.34846598
C        4.11223970       2.59203017       2.06620716
C        4.15267545       2.53896950       3.44623990
C        2.95740194       2.79321583       4.11428550
Br       2.91745540       2.74001276       6.00416665
C        1.77622837       3.08847846       3.40719999
C        1.76909944       3.13587897       2.00553643
C        2.95487090       2.88231007       1.34113622
H        1.21909350       2.06589849      -2.70340906
H        2.67754211       1.21267626      -2.13143368
H        1.37443310       3.63530664      -0.69900180
H        2.72352400       3.75901498      -1.82022347
H        5.07444316       2.30791831       3.96968214
H        0.85118846       3.28103203       3.94811323
H        0.84614475       3.35986143       1.48210582
C       -1.82586505      -1.82586505      -1.82586505
C       -0.99575944      -2.56112529      -2.87150523
N       -0.17623124      -3.62103312      -2.32053185
C       -0.69872241      -4.82464864      -1.86566024
O       -1.85210113      -5.19709890      -1.85305293
C        0.51826064      -5.62954255      -1.34625785
O        0.51602048      -6.74125070      -0.87155454
C        1.67685264      -4.76173867      -1.55317669
C        3.00528613      -4.99621894      -1.25447224
C        3.90202314      -3.97606444      -1.56229098
Br       5.74077483      -4.20778429      -1.18629206
C        3.46378789      -2.77313797      -2.14815677
C        2.10764212      -2.56688698      -2.44019712
C        1.21621377      -3.57845021      -2.13380830
H       -2.53854517      -1.14718158      -2.30267428
H       -2.36289970      -2.50253873      -1.15621363
H       -0.38210928      -1.86939828      -3.45723398
H       -1.69087070      -3.03818655      -3.57370519
H        3.31958203      -5.93065211      -0.80160925
H        4.18042981      -1.98642969      -2.37810739
H        1.79251799      -1.63006534      -2.88635301
C       -1.82586505       1.82586505       1.82586505
C       -2.19738837       3.11980131       1.11120028
N       -3.14864690       2.93473072       0.03441858
C       -4.49063518       2.64919417       0.24920194
O       -5.08262269       2.52058497       1.29904529
C       -5.11105300       2.50945926      -1.16297250
O       -6.26372798       2.27247363      -1.43941686
C       -4.00746252       2.72774323      -2.09714303
C       -4.01821658       2.70575898      -3.47857051
C       -2.80305254       2.94778022      -4.11450049
Br      -2.72207993       2.93499630      -6.00377471
C       -1.63179714       3.20107229      -3.37536258
C       -1.65494037       3.21767046      -1.97316885
C       -2.86051079       2.97619373      -1.34065977
H       -1.23374474       2.03305958       2.72159672
H       -2.69734622       1.22532128       2.09898455
H       -1.30995848       3.64895816       0.74982490
H       -2.68072929       3.77824254       1.84379062
H       -4.93289143       2.50684179      -4.02705389
H       -0.69092181       3.38468891      -3.89150345
H       -0.73923328       3.40949612      -1.42482904
C        1.82586505      -1.82586505       1.82586505
C        1.09706265      -2.22898871       3.10233860
N        0.03853162      -3.19389293       2.88537166
C        0.27901418      -4.52766344       2.58235368
O        1.33999880      -5.10106646       2.46118769
C       -1.12078386      -5.16776667       2.41055695
O       -1.37516930      -6.32071348       2.15124057
C       -2.07564231      -4.08250367       2.63120136
C       -3.45621338      -4.11448233       2.58713610
C       -4.11504625      -2.91339193       2.83798659
Br      -6.00493725      -2.86174453       2.79649424
C       -3.39863143      -1.73490137       3.12123691
C       -1.99667731      -1.73640180       3.15971749
C       -1.34142522      -2.92796303       2.90950694
H        2.70874367      -1.22318883       2.05646854
H        2.12212396      -2.68333587       1.21619222
H        0.71343165      -1.35581891       3.63949098
H        1.82685637      -2.71121492       3.76469116
H       -3.98694123      -5.03434091       2.36527965
H       -3.93244067      -0.80523407       3.31131387
H       -1.46599861      -0.81540096       3.37449800
C       -0.00445707       0.01189536      -1.78238275
H       -0.66409135       0.67374010      -2.43557963
H        0.65740317      -0.63156657      -2.45157240
C       -0.90989263      -0.90692880      -0.91072765
C        0.90977584       0.90977584      -0.90977584
C       -0.00465871       1.77757030       0.00794375
H       -0.66225468       2.44313916      -0.64384735
H        0.64322798       2.43503045       0.67728295
C       -1.78241447       0.00034974      -0.00472694
H       -2.45427497      -0.65498947       0.64260836
H       -2.43311707       0.67328779      -0.65473579
C       -0.91132561       0.90220522       0.91563759
C       -0.01476271      -0.02253852       1.78660255
H       -0.67934791      -0.69751639       2.42135241
H        0.63392994       0.61504881       2.47327442
C        0.01484550      -1.77751727      -0.01636693
H        0.67870853      -2.42144646      -0.68295456
H       -0.62264859      -2.45592969       0.64226336
C        1.78714474       0.01002794       0.00389507
H        2.44202412       0.67113390       0.66197326
H        2.45385902      -0.65136977      -0.64189061
C        0.91606151      -0.90478549       0.90901405
