153
Properties=species:S:1:pos:R:3 pbc="F F F"
C        0.00000000       0.00000000       0.00000000
C        0.88139935       0.88139935      -0.88139935
C        0.69111796       2.25900682      -0.88953738
C        1.50243497       3.05996511      -1.69595789
C        2.50683125       2.49362346      -2.49580164
C        2.68491252       1.11020076      -2.47877953
C        1.87265292       0.30389790      -1.67185616
N        3.27375191       3.38807278      -3.26701917
C        4.31781411       3.12254339      -4.12122078
O        4.75617796       1.99947503      -4.35657872
C        4.92819277       4.26837174      -4.77473013
N        5.98854991       4.08194241      -5.64241748
H        6.38620677       3.17759892      -5.86602919
C        6.38754302       5.29017934      -6.12315001
N        5.65950871       6.26222130      -5.63034592
C        4.73713592       5.64817151      -4.78246060
C        3.74883183       6.45332695      -4.05241279
O        2.92909631       5.93854860      -3.30014192
N        3.87224747       7.79986552      -4.32210167
C        3.09778104       8.85681647      -3.80976568
C        2.03795693       8.68096788      -2.91450354
C        1.30876065       9.77916250      -2.44660078
C        1.63807640      11.06112991      -2.87363244
C        2.69031886      11.25446087      -3.76438762
C        3.41741896      10.15359668      -4.23072896
H       -0.07849949       2.72050307      -0.27704404
H        1.34133936       4.13645510      -1.69040064
H        3.44611689       0.62432311      -3.08048071
H        2.02567444      -0.77212627      -1.67014320
H        3.00684368       4.36427922      -3.16051453
H        7.20690029       5.39659593      -6.82280985
H        4.62227880       8.02221019      -4.97391475
H        1.74535464       7.70005616      -2.55528300
H        0.48905077       9.61599169      -1.75161127
H        2.95287929      12.25337029      -4.10207884
H        4.23535120      10.32628496      -4.92609680
C        0.88615513      12.19051280      -2.39123352
C        0.25642107      13.13637097      -1.98722444
Br      -0.76180564      14.66574362      -1.33397591
C       -0.88139935      -0.88139935      -0.88139935
C       -0.75273551      -0.82205368      -2.26487298
C       -1.56008927      -1.63281475      -3.06545396
C       -2.49703086      -2.50653506      -2.49269043
C       -2.61623295      -2.55399759      -1.10366228
C       -1.80875222      -1.74184038      -0.29781438
N       -3.25721842      -3.28512669      -3.38649874
C       -4.22588293      -4.22190406      -3.11379128
O       -4.59752374      -4.53033726      -1.98437071
C       -4.83287524      -4.87912214      -4.25929725
N       -5.80963389      -5.83836679      -4.06490911
H       -6.14692422      -6.12809210      -3.15481857
C       -6.21992772      -6.30672274      -5.27422190
N       -5.57862328      -5.71893187      -6.25452079
C       -4.70354496      -4.81924952      -5.64497355
C       -3.81675689      -3.97802107      -6.45979360
O       -3.03764084      -3.18126365      -5.94888233
N       -3.97979540      -4.20431488      -7.81010437
C       -3.30741488      -3.58017413      -8.87677419
C       -2.33459136      -2.58962869      -8.70920829
C       -1.70699807      -2.01045005      -9.81707580
C       -2.05109621      -2.42129201     -11.10045053
C       -3.01722666      -3.40635730     -11.28558338
C       -3.64330358      -3.98333951     -10.17510151
H       -0.03281382      -0.15513339      -2.73110040
H       -1.44655872      -1.57516410      -4.14647227
H       -3.32675868      -3.21120215      -0.61295988
H       -1.91426970      -1.79215397       0.78273230
H       -3.04222387      -3.12176604      -4.36764751
H       -6.98203517      -7.06908274      -5.37518815
H       -4.67790838      -4.91298907      -8.02750628
H       -2.03525923      -2.23777870      -7.72765587
H       -0.95438232      -1.24197889      -9.66029253
H       -3.29081796      -3.73196748     -12.28554298
H       -4.39530619      -4.75091367     -10.34151311
C       -1.40429117      -1.82376952     -12.23984077
C       -0.86259196      -1.32334443     -13.19408009
Br       0.01328986      -0.51419938     -14.73700437
C       -0.88139935       0.88139935       0.88139935
C       -0.98440738       0.61315371       2.24210108
C       -1.79021370       1.42476726       3.04337702
C       -2.49503534       2.50691762       2.49430339
C       -2.38352076       2.76279851       1.12757353
C       -1.57694172       1.95052202       0.32094324
N       -3.27401100       3.26677502       3.38805784
C       -4.04905647       4.37448674       3.13803507
O       -4.18995408       4.89016442       2.03211321
C       -4.73505141       4.95673847       4.27950476
N       -5.52742063       6.07696642       4.10852274
H       -5.67228334       6.53880076       3.21875078
C       -6.05719161       6.43445936       5.30922140
N       -5.66718537       5.62311176       6.26177881
C       -4.83783148       4.68756932       5.64236723
C       -4.21619257       3.61199157       6.42638742
O       -3.48227265       2.77885168       5.90666250
N       -4.55992024       3.67406763       7.76022680
C       -4.15829318       2.81038341       8.79568661
C       -3.31633360       1.70981485       8.60727990
C       -2.95889729       0.89158104       9.68404560
C       -3.44365236       1.17213319      10.95705320
C       -4.28262190       2.26386785      11.16267759
C       -4.63845997       3.08007100      10.08321363
H       -0.44640175      -0.21760093       2.69024680
H       -1.85954421       1.20206606       4.10658482
H       -2.90976928       3.58591227       0.65523917
H       -1.50085870       2.16470759      -0.74187493
H       -3.24271404       2.93824017       4.35068322
H       -6.71381631       7.28747157       5.42501819
H       -5.17991444       4.44842224       7.99006705
H       -2.91539277       1.45268802       7.63261302
H       -2.30348744       0.04176206       9.51140423
H       -4.66493166       2.48871232      12.15468445
H       -5.29492904       3.92759498      10.26520894
C       -3.07497715       0.32857923      12.06434508
C       -2.76621166      -0.37789722      12.99170203
Br      -2.26696398      -1.52020987      14.49115978
C        0.88139935      -0.88139935       0.88139935
C        2.26531874      -0.81046363       0.76387980
C        3.06604619      -1.61741607       1.57489572
C        2.49307667      -2.49649255       2.50668714
C        1.10350005      -2.55821553       2.61217722
C        0.29746288      -1.75097960       1.79996449
N        3.38741474      -3.26130977       3.28011935
C        3.11534052      -4.18162229       4.26461547
O        1.98570122      -4.49574266       4.63078783
C        4.26202520      -4.80819242       4.90107701
N        4.06873646      -5.73885171       5.90532162
H        3.15866225      -6.02815212       6.24302051
C        5.27914080      -6.17882621       6.34290536
N        6.25908611      -5.60022852       5.69276130
C        5.64814842      -4.73669949       4.78292011
C        6.46217436      -3.91611876       3.87627845
O        5.95014660      -3.14839141       3.06924883
N        7.81318774      -4.12414412       4.05688280
C        8.87911297      -3.51936333       3.36588689
C        8.70960246      -2.57937981       2.34444608
C        9.81673788      -2.01923618       1.69854986
C       11.10133545      -2.39828304       2.07322025
C       11.28842409      -3.33249580       3.08824745
C       10.17864883      -3.89110532       3.73199045
H        2.73184097      -0.13587770       0.05132894
H        4.14746138      -1.54944619       1.47128752
H        0.61251323      -3.22281559       3.31559190
H       -0.78346671      -1.81124930       1.89590878
H        4.36878837      -3.09210262       3.07074644
H        5.38113263      -6.91452007       7.13065337
H        8.03174978      -4.80265345       4.78400050
H        7.72700052      -2.25481868       2.01887461
H        9.65840622      -1.29102496       0.90722255
H       12.28934548      -3.63309839       3.38588456
H       10.34658176      -4.61912330       4.52202790
C       12.23995034      -1.82092052       1.40703060
C       13.19354031      -1.33737941       0.84909676
Br      14.73541463      -0.55553433      -0.05303507
