174
Properties=species:S:1:pos:R:3 pbc="F F F"
C        1.79130337       1.79130337      -1.79130337
C        1.60102199       3.16891085      -1.79944140
C        2.41233900       3.96986914      -2.60586192
C        3.41673528       3.40352748      -3.40570566
C        3.59481654       2.02010478      -3.38868356
C        2.78255694       1.21380192      -2.58176018
N        4.18365594       4.29797680      -4.17692320
C        5.22771813       4.03244741      -5.03112480
O        5.66608198       2.90937906      -5.26648275
C        5.83809679       5.17827576      -5.68463416
N        6.89845393       4.99184643      -6.55232150
H        7.29611080       4.08750295      -6.77593321
C        7.29744705       6.20008336      -7.03305403
N        6.56941274       7.17212533      -6.54024995
C        5.64703994       6.55807553      -5.69236463
C        4.65873585       7.36323097      -4.96231681
O        3.83900034       6.84845262      -4.21004595
N        4.78215149       8.70976954      -5.23200570
C        4.00768507       9.76672050      -4.71966971
C        2.94786096       9.59087190      -3.82440756
C        2.21866467      10.68906653      -3.35650480
C        2.54798042      11.97103394      -3.78353646
C        3.60022289      12.16436489      -4.67429164
C        4.32732299      11.06350070      -5.14063299
H        0.83140453       3.63040709      -1.18694807
H        2.25124338       5.04635913      -2.60030466
H        4.35602092       1.53422714      -3.99038474
H        2.93557846       0.13777776      -2.58004722
H        3.91674770       5.27418325      -4.07041855
H        8.11680431       6.30649995      -7.73271387
H        5.53218282       8.93211422      -5.88381877
H        2.65525866       8.60996019      -3.46518703
H        1.39895479      10.52589572      -2.66151530
H        3.86278331      13.16327432      -5.01198287
H        5.14525523      11.23618898      -5.83600083
C        1.79605916      13.10041682      -3.30113755
C        1.16632510      14.04627499      -2.89712846
Br       0.14809839      15.57564765      -2.24387993
C       -1.79130337      -1.79130337      -1.79130337
C       -1.58798788      -1.81451044      -3.16687592
C       -2.39587946      -2.62489117      -3.96729942
C       -3.40768016      -3.41617450      -3.40211376
C       -3.60119869      -3.38130501      -2.02110119
C       -2.79337734      -2.56925047      -1.21549124
N       -4.16194303      -4.20202599      -4.29458691
C       -5.19326108      -5.07096141      -4.02706786
O       -5.63931334      -5.29743060      -2.90519984
C       -5.77506553      -5.75750607      -5.16843511
N       -6.81162121      -6.65271084      -4.97828982
H       -7.21101885      -6.87431000      -4.07421811
C       -7.18364180      -7.16462693      -6.18231570
N       -6.46114207      -6.66542419      -7.15522175
C       -5.57094239      -5.78034279      -6.54619493
C       -4.59837336      -5.03210329      -7.35380698
O       -3.80437828      -4.25007331      -6.84304731
N       -4.70328145      -5.32318920      -8.69745609
C       -3.94332425      -4.79407875      -9.75667227
C       -2.92775665      -3.84765062      -9.58773315
C       -2.21278247      -3.36330535     -10.68814818
C       -2.51180633      -3.82535818     -11.96538632
C       -3.51948871      -4.76763031     -12.15176040
C       -4.23296626      -5.24972100     -11.04876941
H       -0.80943290      -1.21234998      -3.62697681
H       -2.22343738      -2.63245182      -5.04201796
H       -4.37112248      -3.97292547      -1.53658484
H       -2.95740318      -2.55481515      -0.14118511
H       -3.88772188      -4.10397598      -5.26965164
H       -7.98006103      -7.89080598      -6.28515113
H       -5.42691018      -6.00552693      -8.91567870
H       -2.66094201      -3.45861638      -8.61084749
H       -1.42838910      -2.62748561     -10.53049110
H       -3.75824494      -5.13284211     -13.14695344
H       -5.01619965      -5.98520499     -11.21604039
C       -1.77503595      -3.32544297     -13.09713461
C       -1.15799076      -2.90676399     -14.04497380
Br      -0.16028087      -2.22979548     -15.57754962
C       -1.79130337       1.79130337       1.79130337
C       -2.57976761       1.21071936       2.77888726
C       -3.38178155       2.02273574       3.58355276
C       -3.40108678       3.41511834       3.40976330
C       -2.60639236       3.98322731       2.41398521
C       -1.80147653       3.17188661       1.60475590
N       -4.23824770       4.14408589       4.27622235
C       -4.44571528       5.50150475       4.34407032
O       -3.90508904       6.32573178       3.61112296
C       -5.37085836       5.96568120       5.36446715
N       -5.62531607       7.31812244       5.49918335
H       -5.20286930       8.03503198       4.92164568
C       -6.51312056       7.50483166       6.51263222
N       -6.86223697       6.36411421       7.05543683
C       -6.16039367       5.38357893       6.35350751
C       -6.31640153       3.96521982       6.70266229
O       -5.70987535       3.08470211       6.10292144
N       -7.19660779       3.77969408       7.74762486
C       -7.58941293       2.56523644       8.33942590
C       -7.12309311       1.31297749       7.92706982
C       -7.55839591       0.14462074       8.56121935
C       -8.46432616       0.22481492       9.61340974
C       -8.93863349       1.46320195      10.03704398
C       -8.50135706       2.62992357       9.40017604
H       -2.57971349       0.13532853       2.93371766
H       -3.99238680       1.55299525       4.35252512
H       -2.58778184       5.05399237       2.23885858
H       -1.18790915       3.63128201       0.83421229
H       -4.74978732       3.56933965       4.94222253
H       -6.86411113       8.48621720       6.80568981
H       -7.59236151       4.64460751       8.11114679
H       -6.41702702       1.20245820       7.11092066
H       -7.18146516      -0.81670337       8.22160402
H       -9.64657103       1.53299586      10.85847360
H       -8.88413589       3.58703910       9.74627005
C       -8.91167136      -0.97895079      10.26489296
C       -9.28632296      -1.98710457      10.81051016
Br      -9.89210292      -3.61720397      11.69272702
C        1.79130337      -1.79130337       1.79130337
C        3.16694235      -1.81404656       1.58838532
C        3.96794678      -2.62037089       2.39975238
C        3.40363053      -3.40558344       3.41675445
C        2.02214514      -3.37401543       3.60744431
C        1.21579246      -2.56714715       2.79517944
N        4.29802916      -4.17798994       4.18253683
C        4.03436692      -5.01999455       5.23692887
O        2.91330888      -5.24080795       5.68782695
C        5.17975060      -5.67849384       5.84276227
N        4.99520897      -6.53457015       6.91284274
H        4.09258585      -6.74605430       7.32090680
C        6.20262090      -7.02284271       7.30512083
N        7.17234285      -6.54587341       6.56357176
C        6.55757822      -5.70085711       5.63904477
C        7.36019284      -4.98751299       4.63657780
O        6.84476484      -4.23808037       3.81465369
N        8.70527445      -5.26859621       4.75005606
C        9.75964552      -4.77331758       3.96111217
C        9.58220021      -3.88628529       2.89465493
C       10.67782302      -3.43540240       2.15101057
C       11.95880545      -3.87131015       2.47243523
C       12.15370255      -4.75406897       3.53110790
C       11.05540528      -5.20338504       4.27266636
H        3.62688069      -1.21302115       0.80885785
H        5.04289295      -2.62634206       2.22867216
H        1.53784876      -3.96409997       4.37868406
H        0.14130394      -2.55398534       2.95811415
H        5.27264636      -4.08306486       3.90563828
H        6.31020492      -7.71586393       8.12994929
H        8.92857213      -5.91549651       5.50404717
H        8.60196335      -3.52065126       2.60779126
H       10.51344323      -2.74652509       1.32639749
H       13.15185431      -5.09862097       3.78756521
H       11.22928164      -5.89274584       5.09541754
C       13.08553584      -3.40643321       1.70564448
C       14.02917255      -3.01709877       1.06345723
Br      15.55495329      -2.38757791       0.02509477
C       -0.00445707       0.01189536      -1.78238275
H       -0.66409135       0.67374010      -2.43557963
H        0.65740317      -0.63156657      -2.45157240
C       -0.90989263      -0.90692880      -0.91072765
C        0.90977584       0.90977584      -0.90977584
C       -0.00465871       1.77757030       0.00794375
H       -0.66225468       2.44313916      -0.64384735
H        0.64322798       2.43503045       0.67728295
C       -1.78241447       0.00034974      -0.00472694
H       -2.45427497      -0.65498947       0.64260836
H       -2.43311707       0.67328779      -0.65473579
C       -0.91132561       0.90220522       0.91563759
C       -0.01476271      -0.02253852       1.78660255
H       -0.67934791      -0.69751639       2.42135241
H        0.63392994       0.61504881       2.47327442
C        0.01484550      -1.77751727      -0.01636693
H        0.67870853      -2.42144646      -0.68295456
H       -0.62264859      -2.45592969       0.64226336
C        1.78714474       0.01002794       0.00389507
H        2.44202412       0.67113390       0.66197326
H        2.45385902      -0.65136977      -0.64189061
C        0.91606151      -0.90478549       0.90901405
