129
Properties=species:S:1:pos:R:3 pbc="F F F"
C        0.00000000       0.00000000       0.00000000
C        0.88156633       0.88156633      -0.88156633
C        1.60559936       0.31261500      -1.92516043
C        2.41412674       1.12106577      -2.73047711
C        2.51869464       2.49838797      -2.49150807
C        1.76556580       3.05492379      -1.44659009
C        0.95395324       2.25067767      -0.64009918
C        3.33646759       3.39514824      -3.32435921
C        4.48518960       3.09071853      -3.93967540
N        5.16773538       1.89287242      -3.94606921
C        6.22759527       2.12032028      -4.66508638
N        6.32379783       3.38506887      -5.15492278
C        5.24232819       4.09460688      -4.73908687
O        4.97225165       5.25629640      -4.96434961
C        7.26592712       1.10565633      -4.94965879
C        8.40586614       1.38758415      -5.71319985
C        9.35655960       0.38774837      -5.94940131
C        9.16938566      -0.89048642      -5.42489399
C        8.04002471      -1.18214556      -4.66487865
C        7.09074021      -0.18482669      -4.42782947
H        1.55029759      -0.75387119      -2.12491297
H        2.96147331       0.65745037      -3.54775427
H        1.81117038       4.12284892      -1.24216439
H        0.38706727       2.70264884       0.16920268
H        2.95917247       4.41253032      -3.41429230
H        7.04112549       3.79432651      -5.72657691
H        8.58549638       2.37028282      -6.13543530
H       10.23946238       0.61556565      -6.54221394
H        7.88707136      -2.17616792      -4.25176888
H        6.21207111      -0.42290707      -3.83024348
C       10.15103407      -1.91515515      -5.66988453
C       10.97316462      -2.77331522      -5.87506412
Br      12.30248018      -4.16088747      -6.20682215
C       -0.88156633      -0.88156633      -0.88156633
C       -1.86728873      -1.67459050      -0.30149556
C       -2.67260806      -2.48297891      -1.11008264
C       -2.49065979      -2.51835169      -2.49957919
C       -1.50430007      -1.69675439      -3.06602523
C       -0.69812579      -0.88505626      -2.26154803
C       -3.32698114      -3.33344257      -3.39555132
C       -3.87893667      -4.52016804      -3.11647882
N       -3.80331468      -5.25251431      -1.95084802
C       -4.48610324      -6.33258068      -2.19431801
N       -5.02695731      -6.39665926      -3.44017291
C       -4.68919789      -5.26871412      -4.11810993
O       -4.97694570      -4.95985502      -5.25609694
C       -4.68116076      -7.42459586      -1.21548563
C       -5.40740625      -8.58425219      -1.51499170
C       -5.55855748      -9.58602253      -0.54912926
C       -4.98635859      -9.43018007       0.71274543
C       -4.26275252      -8.28165078       1.02164550
C       -4.11058394      -7.28135594       0.05819688
H       -2.02177277      -1.67347124       0.77390464
H       -3.44459858      -3.08515748      -0.63692190
H       -1.34562666      -1.68792670      -4.14263033
H        0.06559151      -0.26422217      -2.72188276
H       -3.47780944      -2.91769273      -4.39049292
H       -5.58524023      -7.12060016      -3.85618852
H       -5.86475549      -8.74056921      -2.48588981
H       -6.12290032     -10.48385918      -0.79048247
H       -3.81287884      -8.15284490       2.00305142
H       -3.54084258      -6.38796885       0.30940391
C       -5.14386960     -10.46428961       1.70239575
C       -5.27578507     -11.33035634       2.53122789
Br      -5.48908123     -12.73071300       3.87137936
C       -0.88156633       0.88156633       0.88156633
C       -2.10081635       1.34574515       0.39681329
C       -2.90622131       2.15471513       1.20473318
C       -2.49504331       2.51918067       2.49436669
C       -1.27143433       2.02473530       2.97091006
C       -0.46377527       1.21361869       2.16733612
C       -3.31632952       3.34792121       3.39172430
C       -4.15058150       4.33117458       3.03382745
N       -4.43994075       4.79760568       1.76913058
C       -5.28522229       5.76768447       1.96009517
N       -5.59985356       6.00195425       3.26198167
C       -4.91398158       5.12325996       4.03878039
O       -4.92425913       5.02050197       5.24813656
C       -5.87910871       6.57226827       0.86986527
C       -6.77340169       7.62322085       1.11002760
C       -7.30343937       8.35159926       0.03867065
C       -6.94179135       8.03123063      -1.26922875
C       -6.05407425       6.98848642      -1.51980287
C       -5.52380001       6.26118560      -0.45124261
H       -2.43781748       1.08649426      -0.60297237
H       -3.86035683       2.49603986       0.81028127
H       -0.92805966       2.27542428       3.97269975
H        0.48416800       0.85016264       2.55451878
H       -3.19721487       3.13577721       4.45300301
H       -6.21870816       6.68882412       3.65449662
H       -7.07590270       7.90169468       2.11361713
H       -7.99614557       9.16694626       0.23415013
H       -5.76651105       6.73287327      -2.53671200
H       -4.82859342       5.44894423      -0.65813014
C       -7.48906396       8.78445087      -2.36775137
C       -7.94740478       9.41527281      -3.28776407
Br      -8.68850312      10.43525855      -4.77534680
C        0.88156633      -0.88156633       0.88156633
C        0.54507568      -1.08107205       2.21722706
C        1.35459831      -1.88718087       3.02389044
C        2.51258990      -2.48664921       2.50935157
C        2.82321694      -2.28839216       1.15547058
C        2.01537202      -1.48489998       0.34445809
C        3.38381378      -3.36204282       3.31011844
C        3.63305734      -3.26144921       4.62107698
N        3.14705670      -2.33777756       5.52184275
C        3.70322830      -2.65590088       6.65387275
N        4.53430847      -3.73063855       6.59884247
C        4.55875455      -4.19501929       5.32224809
O        5.18481857      -5.13353515       4.87454394
C        3.47084317      -1.92908858       7.92131050
C        4.09981846      -2.28594514       9.12088654
C        3.84267786      -1.56081147      10.29021995
C        2.95946161      -0.48231253      10.26201909
C        2.32836129      -0.11887109       9.07552542
C        2.58474801      -0.84143561       7.90755938
H       -0.34129755      -0.61936104       2.64327588
H        1.06616412      -2.03924627       4.06126757
H        3.70647932      -2.75067218       0.71903218
H        2.28108894      -1.33828055      -0.69885606
H        3.88445124      -4.15073701       2.75080684
H        5.07162291      -4.15901717       7.33138883
H        4.79362937      -3.11742551       9.18015963
H        4.33635226      -1.84383077      11.21705894
H        1.63888572       0.72126561       9.04505221
H        2.08754152      -0.54746203       6.98440396
C        2.69929711       0.26107641      11.46754276
C        2.48140933       0.88366464      12.47716883
Br       2.12910322       1.89033716      14.10964880
