129
Properties=species:S:1:pos:R:3 pbc="F F F"
C        0.00000000       0.00000000       0.00000000
C        0.88162360       0.88162360      -0.88162360
C        1.53851809       0.32560680      -1.97793009
C        2.33999339       1.13021678      -2.79526703
C        2.49153825       2.49425214      -2.50584435
C        1.83555347       3.03915546      -1.39003822
C        1.02515066       2.23438491      -0.58449893
N        3.29554061       3.33839055      -3.32322676
N        3.57667364       4.60998941      -2.94796805
C        4.35262651       5.08650992      -3.92130204
C        4.55333443       4.16596023      -4.96999703
C        3.87083121       3.04051136      -4.54404043
C        5.31182693       4.39982658      -6.19274344
O        5.97515573       5.42168890      -6.32186711
N        5.18344123       3.40348733      -7.13866085
C        5.77767418       3.33683789      -8.41709964
C        6.64398724       4.29572830      -8.94179951
C        7.18442535       4.12797219     -10.22353970
C        6.85888161       3.00233287     -10.98120679
Br       7.59880662       2.78470854     -12.70649415
C        5.99508690       2.03838886     -10.47492244
C        5.46549849       2.21649571      -9.20157593
F        4.63210337       1.28432180      -8.71034474
H        1.43525862      -0.73303500      -2.20377841
H        2.84423135       0.65494870      -3.63061910
H        1.93356271       4.09572783      -1.14385085
H        0.51348006       2.67459909       0.26749480
H        4.73358995       6.09836744      -3.84373417
H        3.73184816       2.07422191      -5.00136863
H        4.57060153       2.62727546      -6.92395051
H        6.92296999       5.18499453      -8.38477317
H        7.85917342       4.88469482     -10.61803850
H        5.72830468       1.15619198     -11.04703784
C       -0.88162360      -0.88162360      -0.88162360
C       -2.22565590      -0.55785181      -1.05854726
C       -3.03631758      -1.35620368      -1.87295595
C       -2.49986146      -2.48864313      -2.50313015
C       -1.14757823      -2.81184719      -2.30532174
C       -0.33843728      -2.00370005      -1.50189717
N       -3.29913302      -3.31580247      -3.34222243
N       -2.82723487      -4.49680104      -3.81059518
C       -3.83015923      -5.00106278      -4.52921646
C       -4.95100275      -4.14815294      -4.59013599
C       -4.58140070      -3.07553692      -3.79844539
C       -6.18354436      -4.39120237      -5.32965022
O       -6.38299712      -5.47899879      -5.85671583
N       -7.03693706      -3.30812043      -5.38053193
C       -8.29243082      -3.21995983      -6.01922106
C       -8.90760734      -4.26367285      -6.71023487
C      -10.16187869      -4.07016447      -7.30389409
C      -10.80127032      -2.83364094      -7.20751001
Br     -12.49543608      -2.58683984      -8.00773340
C      -10.20138538      -1.78194558      -6.52506724
C       -8.95654584      -1.98677795      -5.94024635
F       -8.37670674      -0.97153339      -5.27852978
H       -2.65267061       0.31219480      -0.56552622
H       -4.08015377      -1.07639120      -1.97325419
H       -0.70452308      -3.68385438      -2.78476392
H        0.70957650      -2.26014380      -1.37001706
H       -3.70539078      -5.96866935      -5.00163143
H       -5.10238941      -2.16892974      -3.53611954
H       -6.73524903      -2.45036625      -4.93621222
H       -8.44426811      -5.24077153      -6.80769805
H      -10.62859565      -4.89459223      -7.83871886
H      -10.68049609      -0.81255602      -6.43848239
C       -0.88162360       0.88162360       0.88162360
C       -1.06220503       0.55529848       2.22455146
C       -1.86097821       1.36456482       3.03993418
C       -2.48906610       2.49846064       2.50410801
C       -2.31040343       2.80829989       1.14604385
C       -1.50061485       2.00459518       0.33882446
N       -3.30236925       3.34362225       3.31116642
N       -4.04131674       4.33574432       2.75757005
C       -4.67910987       4.89642868       3.78489992
C       -4.33727075       4.32466722       5.02735372
C       -3.45858983       3.31277537       4.68401780
C       -4.82629380       4.74257370       6.33552946
O       -5.72397724       5.57165785       6.42307665
N       -4.18123061       4.14530075       7.39905805
C       -4.41301207       4.34118479       8.77741485
C       -5.38696809       5.18738810       9.30715886
C       -5.53712948       5.30346635      10.69534141
C       -4.71380646       4.57438743      11.55422738
Br      -4.92996103       4.73529948      13.42474880
C       -3.73635145       3.72862734      11.04341941
C       -3.59745396       3.62217988       9.66393628
F       -2.65437299       2.80334363       9.16905328
H       -0.58770009      -0.32767342       2.64597536
H       -1.98605529       1.06745530       4.07628856
H       -2.78413211       3.68429542       0.70471386
H       -1.36170463       2.26594634      -0.70706662
H       -5.36104176       5.71778056       3.59686924
H       -2.92609015       2.59476484       5.28658369
H       -3.42580372       3.50471703       7.19130675
H       -6.04790064       5.77115320       8.67368384
H       -6.30204615       5.96727692      11.09258366
H       -3.08536616       3.15322130      11.69294704
C        0.88162360      -0.88162360       0.88162360
C        0.46774557      -2.17372291       1.20058650
C        1.27564215      -2.98988571       1.99994935
C        2.49722088      -2.50480527       2.48960859
C        2.89607059      -1.19612062       2.17255594
C        2.09212417      -0.38940077       1.36250956
N        3.34265796      -3.31461126       3.29988870
N        4.43421729      -2.79116455       3.90924927
C        4.96493944      -3.80933944       4.58615959
C        4.27075818      -5.02166664       4.39686687
C        3.21787115      -4.66343544       3.57407642
C        4.62504843      -6.31832221       4.96102631
O        5.51797805      -6.40546293       5.79527076
N        3.89377243      -7.37447928       4.45733771
C        4.00018647      -8.74211668       4.78930855
C        4.88200040      -9.26398220       5.73553246
C        4.90144163     -10.64098767       5.99350794
C        4.04011312     -11.49662403       5.30568412
Br       4.07195406     -13.35138593       5.66666932
C        3.15696067     -10.99387928       4.35755824
C        3.14736182      -9.62545168       4.11075663
F        2.29262654      -9.13812258       3.19602078
H       -0.48259281      -2.55446123       0.83413361
H        0.91005705      -3.98428660       2.23545551
H        3.84097082      -0.79507760       2.53709295
H        2.42176143       0.61642772       1.11525065
H        5.85342607      -3.63896998       5.18329551
H        2.41229208      -5.24265200       3.15249462
H        3.20956928      -7.17281788       3.73944035
H        5.56755857      -8.63261275       6.29256636
H        5.59469612     -11.03210253       6.73510809
H        2.47929451     -11.64112560       3.81111439
