150
Properties=species:S:1:pos:R:3 pbc="F F F"
C        1.79152762       1.79152762      -1.79152762
C        2.44842211       1.23551082      -2.88783412
C        3.24989742       2.04012080      -3.70517106
C        3.40144227       3.40415616      -3.41574838
C        2.74545750       3.94905949      -2.29994224
C        1.93505468       3.14428893      -1.49440295
N        4.20544463       4.24829458      -4.23313079
N        4.48657766       5.51989343      -3.85787208
C        5.26253054       5.99641395      -4.83120607
C        5.46323845       5.07586425      -5.87990105
C        4.78073523       3.95041539      -5.45394446
C        6.22173095       5.30973060      -7.10264746
O        6.88505976       6.33159292      -7.23177114
N        6.09334525       4.31339136      -8.04856488
C        6.68757820       4.24674192      -9.32700366
C        7.55389127       5.20563232      -9.85170354
C        8.09432938       5.03787621     -11.13344373
C        7.76878563       3.91223690     -11.89111081
Br       8.50871065       3.69461257     -13.61639818
C        6.90499092       2.94829288     -11.38482647
C        6.37540251       3.12639973     -10.11147996
F        5.54200740       2.19422582      -9.62024876
H        2.34516264       0.17686903      -3.11368243
H        3.75413537       1.56485272      -4.54052313
H        2.84346673       5.00563185      -2.05375487
H        1.42338408       3.58450312      -0.64240923
H        5.64349398       7.00827146      -4.75363819
H        4.64175218       2.98412593      -5.91127265
H        5.48050555       3.53717949      -7.83385454
H        7.83287401       6.09489855      -9.29467719
H        8.76907744       5.79459884     -11.52794252
H        6.63820870       2.06609601     -11.95694186
C       -1.79152762      -1.79152762      -1.79152762
C       -1.94877321      -3.14128324      -1.48171060
C       -2.76303493      -3.95213422      -2.28002013
C       -3.41290026      -3.40993626      -3.39851029
C       -3.23486310      -2.05168909      -3.70790705
C       -2.43144954      -1.24260446      -2.89969256
N       -4.25231873      -4.20935369      -4.22519757
N       -4.74022395      -3.72920887      -5.39491035
C       -5.45295257      -4.73461364      -5.90258433
C       -5.49053925      -5.86605260      -5.06241191
C       -4.69054415      -5.49969428      -3.99485664
C       -6.21835076      -7.10436208      -5.31139618
O       -6.75593889      -7.29726827      -6.39521666
N       -6.24630710      -7.97097430      -4.23802008
C       -6.86909748      -9.23492720      -4.15729910
C       -7.56519885      -9.84596772      -5.20006056
C       -8.14172670     -11.10940123      -5.01452139
C       -8.02312837     -11.76209433      -3.78691064
Br      -8.80038574     -13.46844470      -3.55089096
C       -7.33532210     -11.16653907      -2.73624910
C       -6.76765517      -9.91250805      -2.93311897
F       -6.10077018      -9.33681386      -1.91889794
H       -1.44045013      -3.57260186      -0.62266211
H       -2.84771812      -5.00030730      -2.01148581
H       -3.72982111      -1.60414768      -4.56888466
H       -2.31496000      -0.19015339      -3.14518304
H       -5.93827964      -4.60410686      -6.86301713
H       -4.41134422      -6.02814811      -3.09765843
H       -5.79539200      -7.67412699      -3.38202059
H       -7.67972002      -9.37236524      -6.17036450
H       -8.68079751     -11.57272291      -5.83809839
H       -7.23158403     -11.65594960      -1.77371294
C       -1.79152762       1.79152762       1.79152762
C       -2.02889944       3.11570501       1.42716261
C       -2.84373826       3.92578332       2.22566769
C       -3.41342636       3.40923901       3.39868144
C       -3.15491468       2.07753860       3.76200595
C       -2.35144757       1.26823206       2.95406693
N       -4.25148155       4.20812505       4.22726340
N       -4.66022697       3.76355150       5.44056471
C       -5.39683805       4.75825465       5.93505785
C       -5.52887815       5.84424773       5.04587788
C       -4.76257712       5.46380734       3.95871061
C       -6.30399721       7.05796314       5.27214867
O       -6.79924669       7.27838197       6.37079516
N       -6.42434852       7.86877482       4.16217816
C       -7.11131798       9.09684218       4.05316362
C       -7.78709026       9.72503753       5.09909934
C       -8.43276609      10.94961606       4.88326716
C       -8.40362511      11.54628694       3.62222130
Br      -9.27359534      13.20093802       3.34518802
C       -7.73725501      10.93276805       2.56808721
C       -7.10035142       9.71771161       2.79521918
F       -6.45412694       9.12481549       1.77753955
H       -1.58290531       3.52771549       0.52509330
H       -2.99203340       4.95447180       1.91300603
H       -3.58669064       1.65006014       4.66610267
H       -2.17228424       0.23563135       3.24238084
H       -5.82987759       4.65240076       6.92312528
H       -4.55171369       5.96017859       3.02525848
H       -5.99986344       7.55175645       3.29991968
H       -7.83292564       9.29464915       6.09487497
H       -8.95486212      11.42703041       5.70972628
H       -7.70258920      11.37880546       1.57985191
C        1.79152762      -1.79152762       1.79152762
C        2.72439245      -1.20348461       2.64389000
C        3.52838152      -2.00547909       3.46132867
C        3.40372752      -3.40180069       3.41581861
C        2.46980627      -3.98234415       2.54230881
C        1.65943270      -3.17662633       1.73768754
N        4.20389864      -4.24256657       4.24040479
N        4.20317956      -5.58755605       4.07360757
C        5.06414002      -6.04205710       4.98395343
C        5.60383796      -5.02177000       5.79339580
C        5.04035747      -3.86937347       5.27536413
C        6.53375373      -5.19825651       6.90209878
O        7.03874553      -6.29376977       7.11590852
N        6.74711364      -4.05837343       7.64981441
C        7.57615884      -3.90366582       8.78149912
C        8.36291900      -4.91390665       9.33440148
C        9.15651991      -4.65050018      10.45862922
C        9.16364067      -3.37779215      11.03070051
Br      10.24264867      -3.03353010      12.54354263
C        8.38361904      -2.36020962      10.49428162
C        7.60048075      -2.63437223       9.37842923
F        6.84772756      -1.65095337       8.85780105
H        2.83527963      -0.12231631       2.67811816
H        4.25097662      -1.50811641       4.10041821
H        2.35029923      -5.06373939       2.48881483
H        0.93204140      -3.64125622       1.07699881
H        5.25789691      -7.10708040       5.04042632
H        5.14591892      -2.83415572       5.55707613
H        6.23579514      -3.22404152       7.39170291
H        8.38630154      -5.91690335       8.91924487
H        9.76504839      -5.44916170      10.87740872
H        8.37379998      -1.36398333      10.92346326
C       -0.00445707       0.01189536      -1.78238275
H       -0.66409135       0.67374010      -2.43557963
H        0.65740317      -0.63156657      -2.45157240
C       -0.90989263      -0.90692880      -0.91072765
C        0.90977584       0.90977584      -0.90977584
C       -0.00465871       1.77757030       0.00794375
H       -0.66225468       2.44313916      -0.64384735
H        0.64322798       2.43503045       0.67728295
C       -1.78241447       0.00034974      -0.00472694
H       -2.45427497      -0.65498947       0.64260836
H       -2.43311707       0.67328779      -0.65473579
C       -0.91132561       0.90220522       0.91563759
C       -0.01476271      -0.02253852       1.78660255
H       -0.67934791      -0.69751639       2.42135241
H        0.63392994       0.61504881       2.47327442
C        0.01484550      -1.77751727      -0.01636693
H        0.67870853      -2.42144646      -0.68295456
H       -0.62264859      -2.45592969       0.64226336
C        1.78714474       0.01002794       0.00389507
H        2.44202412       0.67113390       0.66197326
H        2.45385902      -0.65136977      -0.64189061
C        0.91606151      -0.90478549       0.90901405
