158
Properties=species:S:1:pos:R:3 pbc="F F F"
C        1.79152762       1.79152762      -1.79152762
C        2.44842211       1.23551082      -2.88783412
C        3.24989742       2.04012080      -3.70517106
C        3.40144227       3.40415616      -3.41574838
C        2.74545750       3.94905949      -2.29994224
C        1.93505468       3.14428893      -1.49440295
N        4.20544463       4.24829458      -4.23313079
N        4.48657766       5.51989343      -3.85787208
C        5.26253054       5.99641395      -4.83120607
C        5.46323845       5.07586425      -5.87990105
C        4.78073523       3.95041539      -5.45394446
C        6.22173095       5.30973060      -7.10264746
O        6.88505976       6.33159292      -7.23177114
N        6.09334525       4.31339136      -8.04856488
C        6.68757820       4.24674192      -9.32700366
C        7.55389127       5.20563232      -9.85170354
C        8.09432938       5.03787621     -11.13344373
C        7.76878563       3.91223690     -11.89111081
C        6.90499092       2.94829288     -11.38482647
C        6.37540251       3.12639973     -10.11147996
F        5.54200740       2.19422582      -9.62024876
H        2.34516264       0.17686903      -3.11368243
H        3.75413537       1.56485272      -4.54052313
H        2.84346673       5.00563185      -2.05375487
H        1.42338408       3.58450312      -0.64240923
H        5.64349398       7.00827146      -4.75363819
H        4.64175218       2.98412593      -5.91127265
H        5.48050555       3.53717949      -7.83385454
H        7.83287401       6.09489855      -9.29467719
H        8.76907744       5.79459884     -11.52794252
H        6.63820870       2.06609601     -11.95694186
C        8.33258807       3.74641316     -13.20573216
C        8.80477261       3.60753579     -14.30672755
Br       9.56825508       3.38298281     -16.08694396
C       -1.79152762      -1.79152762      -1.79152762
C       -1.97439885      -3.13375767      -1.46361054
C       -2.78885127      -3.94436207      -2.26197594
C       -3.41307404      -3.40971381      -3.39855896
C       -3.20929090      -2.05930520      -3.72586312
C       -2.40586272      -1.25014747      -2.91773638
N       -4.25206661      -4.20894328      -4.22586011
N       -4.71454772      -3.73960108      -5.41019438
C       -5.43494646      -4.74175659      -5.91344751
C       -5.50290051      -5.85932435      -5.05677890
C       -4.71371603      -5.48871406      -3.98266499
C       -6.24594083      -7.09008737      -5.29808083
O       -6.76984225      -7.29154604      -6.38703552
N       -6.30372119      -7.93942172      -4.21215858
C       -6.94719781      -9.19231285      -4.12181311
C       -7.63668627      -9.80874944      -5.16579142
C       -8.23550394     -11.06020228      -4.96994309
C       -8.14580224     -11.69551438      -3.73081673
C       -7.46496770     -11.09431019      -2.67883238
C       -6.87498163      -9.85229802      -2.88600255
F       -6.21481493      -9.27119582      -1.87047123
H       -1.48600341      -3.55941474      -0.59029595
H       -2.89386999      -4.98682931      -1.97881192
H       -3.68404341      -1.61766320      -4.60114684
H       -2.26933074      -0.20353161      -3.17743408
H       -5.90346802      -4.61876351      -6.88317210
H       -4.45647840      -6.00739280      -3.07327956
H       -5.86138133      -7.63625596      -3.35390228
H       -7.72901838      -9.34855755      -6.14487382
H       -8.76905539     -11.52795396      -5.79460945
H       -7.38354266     -11.57026217      -1.70744174
C       -8.76082001     -12.98356518      -3.54034820
C       -9.27589739     -14.06230773      -3.38083082
Br     -10.10873396     -15.80654320      -3.12290469
C       -1.79152762       1.79152762       1.79152762
C       -2.07372629       3.09881967       1.39922110
C       -2.88886381       3.90846362       2.19786185
C       -3.41369896       3.40884682       3.39880103
C       -3.11020077       2.09456083       3.78969763
C       -2.30669389       1.28513853       2.98191413
N       -4.25095175       4.20750642       4.22841183
N       -4.61583405       3.78508976       5.46341936
C       -5.36567985       4.77312425       5.95134645
C       -5.54993409       5.83108405       5.03798562
C       -4.80234672       5.44177536       3.94097300
C       -6.35112967       7.02978501       5.25319435
O       -6.82326750       7.26656542       6.35859089
N       -6.52209127       7.80714448       4.12606573
C       -7.24433354       9.01350315       4.00348708
C       -7.90917066       9.65165109       5.05040538
C       -8.59284235      10.85273862       4.82006835
C       -8.61262059      11.41596012       3.54355264
C       -7.95778632      10.79201331       2.48831064
C       -7.28284100       9.60051508       2.72992613
F       -6.64773951       8.99762774       1.71111473
H       -1.66262646       3.49800823       0.47507942
H       -3.07278059       4.92418370       1.86254694
H       -3.50662498       1.68034049       4.71588797
H       -2.09246110       0.26566209       3.29217325
H       -5.76979394       4.68252060       6.95308910
H       -4.62929266       5.91828842       2.98956968
H       -6.11191066       7.47831987       3.26130904
H       -7.91745384       9.24705157       6.05794435
H       -9.10579801      11.33834027       5.64748053
H       -7.96088746      11.21216147       1.48819764
C       -9.31434458      12.65291993       3.31746889
C       -9.90203843      13.68887377       3.12812375
Br     -10.85228967      15.36392351       2.82196867
C        1.79152762      -1.79152762       1.79152762
C        2.76687186      -1.20723176       2.59766343
C        3.57132929      -2.00883071       3.41502928
C        3.40415251      -3.40144523       3.41574907
C        2.42733058      -3.97884087       2.58828778
C        1.61699459      -3.17294892       1.78380306
N        4.20386763      -4.24145332       4.24154905
N        4.15833847      -5.59013773       4.11586698
C        5.03280977      -6.04354571       5.01379507
C        5.62680364      -5.01669408       5.77550603
C        5.08210421      -3.86348501       5.23950585
C        6.58441950      -5.18857710       6.86111242
O        7.06310227      -6.29216081       7.09316073
N        6.85402307      -4.03412636       7.56715205
C        7.72134276      -3.87136378       8.66861724
C        8.49438192      -4.88831198       9.22853323
C        9.32927336      -4.61608969      10.32028627
C        9.39140036      -3.32784410      10.85288887
C        8.62581234      -2.30327899      10.30901895
C        7.80131131      -2.58631882       9.22565208
F        7.06243863      -1.59625024       8.69779310
H        2.91064064      -0.12940107       2.59567239
H        4.32742183      -1.51503301       4.01705639
H        2.27435653      -5.05720503       2.57129190
H        0.85641962      -3.63453536       1.15934145
H        5.19664890      -7.11184036       5.09691437
H        5.22672842      -2.82409031       5.48633204
H        6.35995495      -3.19260506       7.29897956
H        8.47547521      -5.90338208       8.84359247
H        9.92640872      -5.42018555      10.74502453
H        8.65849725      -1.29497179      10.70777753
C       10.25567541      -3.05673652      11.97232146
C       10.97950577      -2.82968392      12.90984625
Br      12.14987823      -2.46255907      14.42574455
C       -0.00445707       0.01189536      -1.78238275
H       -0.66409135       0.67374010      -2.43557963
H        0.65740317      -0.63156657      -2.45157240
C       -0.90989263      -0.90692880      -0.91072765
C        0.90977584       0.90977584      -0.90977584
C       -0.00465871       1.77757030       0.00794375
H       -0.66225468       2.44313916      -0.64384735
H        0.64322798       2.43503045       0.67728295
C       -1.78241447       0.00034974      -0.00472694
H       -2.45427497      -0.65498947       0.64260836
H       -2.43311707       0.67328779      -0.65473579
C       -0.91132561       0.90220522       0.91563759
C       -0.01476271      -0.02253852       1.78660255
H       -0.67934791      -0.69751639       2.42135241
H        0.63392994       0.61504881       2.47327442
C        0.01484550      -1.77751727      -0.01636693
H        0.67870853      -2.42144646      -0.68295456
H       -0.62264859      -2.45592969       0.64226336
C        1.78714474       0.01002794       0.00389507
H        2.44202412       0.67113390       0.66197326
H        2.45385902      -0.65136977      -0.64189061
C        0.91606151      -0.90478549       0.90901405
