162
Properties=species:S:1:pos:R:3 pbc="F F F"
C        1.79139968       1.79139968      -1.79139968
C        1.26397162       2.94548642      -2.36431409
C        2.07313528       3.75161763      -3.17008151
C        3.41442524       3.40653059      -3.40205558
C        3.93444793       2.24055722      -2.82120513
C        3.11995008       1.43518690      -2.01706719
N        4.22033450       4.24977049      -4.22048475
N        3.70079638       5.36096235      -4.79763910
C        4.71836284       5.90481678      -5.46429524
C        5.91403596       5.16672112      -5.34860586
C        5.55755837       4.10360392      -4.53936925
C        7.19797054       5.50516752      -5.95115041
O        7.33974020       6.57167696      -6.53785571
N        8.16348138       4.52835163      -5.80989989
C        9.49838339       4.53961594      -6.27760140
C       10.08932409       5.65056604      -6.88419981
C       11.41008103       5.59460196      -7.34494291
C       12.17174676       4.43099215      -7.20122068
C       13.56553866       4.36584140      -7.75016094
C       11.58978176       3.31408554      -6.59396332
C       10.27151535       3.37286642      -6.12955862
Br       9.55444477       1.81097877      -5.30771323
H        0.22896448       3.22956760      -2.19237872
H        1.64233975       4.65124915      -3.60770092
H        4.96155413       1.92381551      -2.97072393
H        3.53168076       0.53261555      -1.57100946
H        4.55599663       6.82348712      -6.01625775
H        6.13359013       3.27865307      -4.15232028
H        7.88478336       3.66060043      -5.37367848
H        9.55143485       6.58484821      -7.01696666
H       11.83715138       6.47459487      -7.82341149
H       14.15665079       3.59917723      -7.23889920
H       14.08217408       5.32173637      -7.61256291
H       13.53443292       4.12927654      -8.81901716
H       12.16491999       2.39710248      -6.48794286
C       -1.79139968      -1.79139968      -1.79139968
C       -1.48770538      -3.14144412      -1.94462262
C       -2.29676209      -3.94684004      -2.75123229
C       -3.41488775      -3.40366208      -3.40446158
C       -3.71007599      -2.04185843      -3.24427586
C       -2.89587121      -1.23873845      -2.43759451
N       -4.22826507      -4.24803127      -4.21429339
N       -3.91949054      -5.55726427      -4.38264302
C       -4.88262247      -6.03484430      -5.17000809
C       -5.83064905      -5.05896486      -5.53974903
C       -5.37812313      -3.91610832      -4.90630010
C       -7.00194728      -5.27027168      -6.38206952
O       -7.30040220      -6.40121680      -6.74765386
N       -7.67452556      -4.11153195      -6.71567539
C       -8.83353039      -3.96826186      -7.51380849
C       -9.56183973      -5.05200461      -8.01024560
C      -10.69083164      -4.84665974      -8.81213452
C      -11.12188369      -3.55456450      -9.12751140
C      -12.29848602      -3.34910575     -10.03394923
C      -10.40053454      -2.46316205      -8.63413403
C       -9.27541351      -2.66963990      -7.82888698
Br      -8.35183394      -1.13049398      -7.19080886
H       -0.62823200      -3.57921802      -1.44346079
H       -2.04344512      -5.00092395      -2.85692075
H       -4.55799985      -1.56899478      -3.72909893
H       -3.13225315      -0.18361408      -2.31943854
H       -4.86263911      -7.08136780      -5.45173458
H       -5.77747388      -2.91536514      -4.87172447
H       -7.26957849      -3.23678967      -6.41269412
H       -9.28130358      -6.07867681      -7.79326933
H      -11.22961797      -5.71316918      -9.19237059
H      -12.75385893      -2.36635942      -9.87450887
H      -13.07134145      -4.10147734      -9.84365458
H      -11.98078710      -3.42249236     -11.07944716
H      -10.71512925      -1.45215439      -8.88268169
C       -1.79139968       1.79139968       1.79139968
C       -3.15795003       1.53919988       1.87662221
C       -3.96288247       2.34681064       2.68514131
C       -3.40137172       3.40774236       3.41389733
C       -2.02375596       3.65360062       3.31885370
C       -1.22207325       2.84387976       2.50625117
N       -4.24244923       4.21085044       4.23729007
N       -5.57677702       3.98036565       4.30225516
C       -6.03713542       4.88977022       5.16056922
C       -5.02815821       5.73453968       5.66666505
C       -3.88132923       5.26962070       5.04958162
C       -5.21092770       6.81680826       6.62655251
O       -6.30174098       6.99006145       7.15747044
N       -4.08357780       7.58731529       6.83083980
C       -3.92699401       8.70478458       7.68382215
C       -4.91612021       9.13791294       8.57005678
C       -4.70981891      10.26392099       9.37588600
C       -3.50771307      10.97571845       9.32052806
C       -3.32167643      12.21291311      10.14695146
C       -2.51082256      10.54922393       8.43778412
C       -2.71630460       9.42099621       7.63663958
Br      -1.30650302       8.90094000       6.46569376
H       -3.60863917       0.72001896       1.32225268
H       -5.02935501       2.13214323       2.73979158
H       -1.53825209       4.46209001       3.85575147
H       -0.15474148       3.04217754       2.43838675
H       -7.09639766       4.90952867       5.38981516
H       -2.85260740       5.58168476       5.13027132
H       -3.27307368       7.38277592       6.26321267
H       -5.86732992       8.62195187       8.66396794
H       -5.50551800      10.58179597      10.04784377
H       -2.25990097      12.42173405      10.31309221
H       -3.78908745      12.09675976      11.13062616
H       -3.77224378      13.07192781       9.63855503
H       -1.57586556      11.10107847       8.37302130
C        1.79139968      -1.79139968       1.79139968
C        3.11737982      -1.43484076       2.02155154
C        3.92225698      -2.24275784       2.82981960
C        3.40090683      -3.40883498       3.41326961
C        2.06418790      -3.75912955       3.17289283
C        1.26268410      -2.94847518       2.36104490
N        4.24000026      -4.21062249       4.23996699
N        5.53767447      -3.87645553       4.44526783
C        6.00573898      -4.81868367       5.26305221
C        5.03923761      -5.78731209       5.60281323
C        3.91033568      -5.36544175       4.92475411
C        5.23911608      -6.93350442       6.48166797
O        6.29304411      -7.06276765       7.09346110
N        4.17357215      -7.81081593       6.51734482
C        4.04882901      -9.01052092       7.25625081
C        4.99587531      -9.43853446       8.18968017
C        4.82650947     -10.64656537       8.87655105
C        3.70310360     -11.44819549       8.65266051
C        3.56226059     -12.76674614       9.35253428
C        2.74866570     -11.02773109       7.72143383
C        2.91662527      -9.81799280       7.03932233
Br       1.56796960      -9.31288362       5.79228356
H        3.53623329      -0.53380284       1.58087468
H        4.95643135      -1.94570345       2.99915502
H        1.61127051      -4.65087149       3.59395157
H        0.22726824      -3.22815293       2.17988460
H        7.03954884      -4.77077091       5.58542175
H        2.91120227      -5.76832887       4.88503234
H        3.39801758      -7.62376516       5.89727953
H        5.88493673      -8.85569393       8.41261906
H        5.58899278     -10.95682632       9.58933863
H        2.51378629     -13.07772736       9.40321357
H        3.93340208     -12.70211246      10.38095883
H        4.13008890     -13.53524045       8.81739727
H        1.87657050     -11.64748969       7.52590514
C       -0.00445707       0.01189536      -1.78238275
H       -0.66409135       0.67374010      -2.43557963
H        0.65740317      -0.63156657      -2.45157240
C       -0.90989263      -0.90692880      -0.91072765
C        0.90977584       0.90977584      -0.90977584
C       -0.00465871       1.77757030       0.00794375
H       -0.66225468       2.44313916      -0.64384735
H        0.64322798       2.43503045       0.67728295
C       -1.78241447       0.00034974      -0.00472694
H       -2.45427497      -0.65498947       0.64260836
H       -2.43311707       0.67328779      -0.65473579
C       -0.91132561       0.90220522       0.91563759
C       -0.01476271      -0.02253852       1.78660255
H       -0.67934791      -0.69751639       2.42135241
H        0.63392994       0.61504881       2.47327442
C        0.01484550      -1.77751727      -0.01636693
H        0.67870853      -2.42144646      -0.68295456
H       -0.62264859      -2.45592969       0.64226336
C        1.78714474       0.01002794       0.00389507
H        2.44202412       0.67113390       0.66197326
H        2.45385902      -0.65136977      -0.64189061
C        0.91606151      -0.90478549       0.90901405
