141
Properties=species:S:1:pos:R:3 pbc="F F F"
C        0.00000000       0.00000000       0.00000000
C        0.88149566       0.88149566      -0.88149566
C        0.35406759       2.03558239      -1.45441006
C        1.16323125       2.84171361      -2.26017749
C        2.50452122       2.49662657      -2.49215155
C        3.02454391       1.33065319      -1.91130110
C        2.21004606       0.52528287      -1.10716317
N        3.31043047       3.33986646      -3.31058073
N        2.79089236       4.45105833      -3.88773508
C        3.80845882       4.99491275      -4.55439122
C        5.00413194       4.25681709      -4.43870184
C        4.64765435       3.19369990      -3.62946522
C        6.28806652       4.59526349      -5.04124639
O        6.42983617       5.66177293      -5.62795168
N        7.25357736       3.61844761      -4.89999586
C        8.58847937       3.62971192      -5.36769738
C        9.17942006       4.74066202      -5.97429579
C       10.50017701       4.68469793      -6.43503888
C       11.26184274       3.52108812      -6.29131666
C       12.65563464       3.45593738      -6.84025692
C       10.67987773       2.40418152      -5.68405929
C        9.36161132       2.46296240      -5.21965460
Br       8.64454075       0.90107475      -4.39780921
H       -0.68093954       2.31966358      -1.28247470
H        0.73243572       3.74134513      -2.69779690
H        4.05165010       1.01391148      -2.06081991
H        2.62177674      -0.37728848      -0.66110543
H        3.64609260       5.91358309      -5.10635373
H        5.22368611       2.36874904      -3.24241626
H        6.97487934       2.75069641      -4.46377445
H        8.64153083       5.67494419      -6.10706264
H       10.92724735       5.56469085      -6.91350746
H       13.24674676       2.68927321      -6.32899518
H       13.17227006       4.41183234      -6.70265888
H       12.62452890       3.21937251      -7.90911314
H       11.25501596       1.48719846      -5.57803883
C       -0.88149566      -0.88149566      -0.88149566
C       -0.63790516      -2.25023685      -0.95591804
C       -1.44689631      -3.05552057      -1.76270548
C       -2.50492005      -2.49326981      -2.49510949
C       -2.73977146      -1.11285309      -2.41387366
C       -1.92575986      -0.31007850      -1.60665375
N       -3.31999293      -3.33739205      -3.30349268
N       -3.06860963      -4.66640171      -3.39467442
C       -4.01605065      -5.13643940      -4.20527274
C       -4.89635075      -4.13650381      -4.66679629
C       -4.41827414      -2.98632656      -4.06621877
C       -6.03575506      -4.33381287      -5.55500847
O       -6.37212290      -5.46613459      -5.88130331
N       -6.63392486      -3.16260761      -5.97548835
C       -7.74564946      -3.00456195      -6.83567725
C       -8.50239288      -4.07603979      -7.31594520
C       -9.58093549      -3.85765975      -8.18131858
C       -9.93241865      -2.56386328      -8.57796558
C      -11.05354080      -2.34828920      -9.54999893
C       -9.18209755      -1.48456732      -8.10145368
C       -8.10763058      -1.70373007      -7.23286767
Br      -7.14026303      -0.18009936      -6.62306232
H        0.17441567      -2.70267170      -0.39294270
H       -1.24120017      -4.12427606      -1.80610152
H       -3.53960661      -0.62514694      -2.96162794
H       -2.11509507       0.75953402      -1.55003264
H       -4.03449765      -6.19536791      -4.43616387
H       -4.76895318      -1.96743124      -4.09846699
H       -6.20100862      -2.29398751      -5.69435408
H       -8.28335629      -5.10280906      -7.03737230
H      -10.14334218      -4.71558582      -8.54651766
H      -11.46686921      -1.33855558      -9.45959036
H      -11.87066121      -3.05319417      -9.36290592
H      -10.69105417      -2.48801617     -10.57394421
H       -9.43440220      -0.47338264      -8.41246841
C       -0.88149566       0.88149566       0.88149566
C       -1.95722334       0.32153871       1.56529800
C       -2.76223726       1.13023855       2.37264654
C       -2.49057287       2.50200817       2.50071831
C       -1.40530841       3.05553523       1.80565457
C       -0.60342357       2.24248430       0.99658423
N       -3.32145753       3.30278845       3.33663169
N       -4.38302790       2.76265116       3.98400670
C       -4.91247544       3.77423694       4.67105040
C       -4.22353112       4.99031406       4.48580569
C       -3.20194486       4.65107705       3.61779756
C       -4.55015698       6.26934163       5.10507780
O       -5.43077160       6.33394151       5.95484768
N       -3.81027363       7.33320933       4.62853786
C       -3.88228906       8.69333071       5.01026889
C       -4.67962299       9.15408117       6.06067370
C       -4.72425576      10.51659849       6.37905958
C       -3.96635018      11.44668261       5.66121473
C       -4.06710712      12.90934711       5.97537471
C       -3.16387738      10.99524726       4.60899390
C       -3.11637161       9.63285850       4.29499822
Br      -1.99326630       9.09793789       2.85222052
H       -2.17973871      -0.73902600       1.48048602
H       -3.59792339       0.67289763       2.90075673
H       -1.15278969       4.10930206       1.86428975
H        0.23588723       2.68047608       0.46100485
H       -5.78694210       3.59352063       5.28556669
H       -2.40099595       5.23707264       3.19678283
H       -3.17316682       7.15025780       3.86592558
H       -5.28437878       8.47939696       6.65976192
H       -5.36475374      10.84424825       7.19644368
H       -3.17305567      13.44757746       5.64438202
H       -4.16308368      13.06900801       7.05466960
H       -4.94052219      13.33902293       5.47346942
H       -2.57962544      11.70851084       4.03211698
C        0.88149566      -0.88149566       0.88149566
C        1.74558292      -1.80269902       0.29577811
C        2.55250628      -2.60790570       1.10471037
C        2.49936138      -2.49086007       2.50307789
C        1.62370246      -1.56067788       3.08211787
C        0.81592164      -0.75822118       2.26834929
N        3.33843327      -3.31758968       3.30485471
N        4.16274470      -4.23110249       2.73583857
C        4.79609877      -4.80159229       3.76007172
C        4.40026708      -4.28755765       5.01182613
C        3.45717983      -3.33149573       4.68214392
C        4.91372557      -4.69725610       6.31359473
O        5.85128978      -5.48314457       6.38512644
N        4.24057755      -4.14585790       7.38558537
C        4.48031974      -4.33944669       8.76612224
C        5.56347249      -5.06924318       9.26166220
C        5.73714914      -5.24287812      10.63988656
C        4.83800447      -4.68346381      11.55277925
C        5.00352721      -4.92497478      13.02332695
C        3.75144442      -3.94990896      11.06676516
C        3.58174182      -3.77298374       9.68950276
Br       2.08013880      -2.75477401       9.10851190
H        1.80219040      -1.90398903      -0.78498069
H        3.22310445      -3.32119815       0.62727515
H        1.53838308      -1.43176243       4.15623599
H        0.13958842      -0.03982678       2.72617849
H        5.52700997      -5.57713743       3.56188203
H        2.88267565      -2.65647369       5.29570207
H        3.43096293      -3.57675086       7.18163641
H        6.29965800      -5.52090422       8.60297543
H        6.58573233      -5.82684914      10.99286419
H        4.51180248      -4.14268468      13.61052799
H        6.06318355      -4.92329202      13.30028572
H        4.56707297      -5.89237440      13.29356718
H        3.03551212      -3.52074036      11.76400078
