149
Properties=species:S:1:pos:R:3 pbc="F F F"
C        0.00000000       0.00000000       0.00000000
C        0.88149566       0.88149566      -0.88149566
C        0.35406759       2.03558239      -1.45441006
C        1.16323125       2.84171361      -2.26017749
C        2.50452122       2.49662657      -2.49215155
C        3.02454391       1.33065319      -1.91130110
C        2.21004606       0.52528287      -1.10716317
N        3.31043047       3.33986646      -3.31058073
N        2.79089236       4.45105833      -3.88773508
C        3.80845882       4.99491275      -4.55439122
C        5.00413194       4.25681709      -4.43870184
C        4.64765435       3.19369990      -3.62946522
C        6.28806652       4.59526349      -5.04124639
O        6.42983617       5.66177293      -5.62795168
N        7.25357736       3.61844761      -4.89999586
C        8.58847937       3.62971192      -5.36769738
C        9.17942006       4.74066202      -5.97429579
C       10.50017701       4.68469793      -6.43503888
C       11.26184274       3.52108812      -6.29131666
C       12.65563464       3.45593738      -6.84025692
C       10.67987773       2.40418152      -5.68405929
C        9.36161132       2.46296240      -5.21965460
H       -0.68093954       2.31966358      -1.28247470
H        0.73243572       3.74134513      -2.69779690
H        4.05165010       1.01391148      -2.06081991
H        2.62177674      -0.37728848      -0.66110543
H        3.64609260       5.91358309      -5.10635373
H        5.22368611       2.36874904      -3.24241626
H        6.97487934       2.75069641      -4.46377445
H        8.64153083       5.67494419      -6.10706264
H       10.92724735       5.56469085      -6.91350746
H       13.24674676       2.68927321      -6.32899518
H       13.17227006       4.41183234      -6.70265888
H       12.62452890       3.21937251      -7.90911314
H       11.25501596       1.48719846      -5.57803883
C        8.81958030       1.28233724      -4.59842468
C        8.36562932       0.29356367      -4.07814462
Br       7.63162898      -1.30519956      -3.23689577
C       -0.88149566      -0.88149566      -0.88149566
C       -0.35612636      -1.44849987      -2.03943383
C       -1.16465006      -2.25610444      -2.84436785
C       -2.50126536      -2.50149831      -2.49053567
C       -3.02030611      -1.92346675      -1.32272535
C       -2.20779642      -1.11362134      -0.52107435
N       -3.30185400      -3.33520163      -3.32382203
N       -2.79764332      -3.86835476      -4.46368768
C       -3.79618769      -4.58961853      -4.97195657
C       -4.96878599      -4.54017115      -4.19069372
C       -4.61579131      -3.72093599      -3.13409217
C       -6.22331466      -5.22713268      -4.47412906
O       -6.29402853      -6.01782126      -5.40771100
N       -7.26046429      -4.88022520      -3.63133133
C       -8.59327519      -5.35392977      -3.63868370
C       -9.03856563      -6.37865343      -4.47715881
C      -10.37605849      -6.79135192      -4.45250341
C      -11.29510171      -6.19583852      -3.58330729
C      -12.73660738      -6.60780453      -3.60741702
C      -10.85883025      -5.17033164      -2.73895665
C       -9.52095974      -4.76220537      -2.76106320
H        0.67731424      -1.27206737      -2.32644560
H       -0.73449915      -2.69187330      -3.74520529
H       -4.04657543      -2.07538801      -1.00441805
H       -2.61893588      -0.66926083       0.38260301
H       -3.63826554      -5.12882327      -5.89894062
H       -5.16923809      -3.39872283      -2.26689049
H       -7.08376228      -4.15119891      -2.95438901
H       -8.37057920      -6.88489660      -5.16806186
H      -10.69328526      -7.58515377      -5.12700664
H      -13.22967615      -6.37800063      -2.65733837
H      -12.82942901      -7.68686927      -3.77046300
H      -13.26151848      -6.08047629      -4.41101977
H      -11.56519132      -4.68760342      -2.06745852
C       -9.13076873      -3.70508101      -1.86449249
C       -8.80398375      -2.81973935      -1.11361452
Br      -8.27560008      -1.38821677       0.10049165
C       -0.88149566       0.88149566       0.88149566
C       -1.87039886       1.67174192       0.30191928
C       -2.67700184       2.47714232       1.11097819
C       -2.49828920       2.49125833       2.50375180
C       -1.49764381       1.69245445       3.07639995
C       -0.69083659       0.88941879       2.26223672
N       -3.33932840       3.31472259       3.30682667
N       -4.28668259       4.10212284       2.74088033
C       -4.88211186       4.70827514       3.76737579
C       -4.33963865       4.34346173       5.01655049
C       -3.34474995       3.44272329       4.68334623
C       -4.77868459       4.82491057       6.32098124
O       -5.77407942       5.53396376       6.41151762
N       -3.97244613       4.42971979       7.36985491
C       -4.11386652       4.72636266       8.74565949
C       -5.21371005       5.40590080       9.27476702
C       -5.28795396       5.68798440      10.64397547
C       -4.26982204       5.28916836      11.51525712
C       -4.33446335       5.64760489      12.96976069
C       -3.16547204       4.60703890      10.99560760
C       -3.09479678       4.32144823       9.62798331
H       -2.02491272       1.67029752      -0.77401151
H       -3.44620789       3.08675487       0.63861499
H       -1.31269400       1.66825239       4.14543510
H        0.08290254       0.27345073       2.71504551
H       -5.69373387       5.39983687       3.57245868
H       -2.66312771       2.87541803       5.29630567
H       -3.13449052       3.91334143       7.14151825
H       -6.03941837       5.73410857       8.65001071
H       -6.15362307       6.22931620      11.02250639
H       -3.72751876       4.96462878      13.57286761
H       -5.36317227       5.58340104      13.34018798
H       -3.96606761       6.66811821      13.11882872
H       -2.35870831       4.30295400      11.65859094
C       -1.93519618       3.61170365       9.15344238
C       -0.96403068       3.01729257       8.75601436
Br       0.60626180       2.05618012       8.11340686
C        0.88149566      -0.88149566       0.88149566
C        1.98154107      -0.32989659       1.53262239
C        2.78652932      -1.13854904       2.34004399
C        2.49055149      -2.50180403       2.50094382
C        1.38087356      -3.04700592       1.83861873
C        0.57906421      -2.23410078       1.02932711
N        3.32212944      -3.30249725       3.33625098
N        4.40690201      -2.77114261       3.95164115
C        4.93002603      -3.77943700       4.64829977
C        4.21370788      -4.98485052       4.50109246
C        3.18177804      -4.64232207       3.64671935
C        4.52746782      -6.25774361       5.13936497
O        5.42351949      -6.32327280       5.97276850
N        3.75737900      -7.31571706       4.69892477
C        3.81026569      -8.66923547       5.10638750
C        4.61930182      -9.12513941       6.14993664
C        4.64349810     -10.48174960       6.49466612
C        3.85318321     -11.41037857       5.81068574
C        3.93142615     -12.86830602       6.15209677
C        3.03879050     -10.96371865       4.76560939
C        3.01180794      -9.60709291       4.42532747
H        2.22313423       0.72411413       1.42217864
H        3.64148397      -0.68777092       2.84232285
H        1.10889726      -4.09413429       1.92334994
H       -0.27928287      -2.66561161       0.51926496
H        5.82003722      -3.60425243       5.24173977
H        2.36116500      -5.22029400       3.25339241
H        3.10881702      -7.13505558       3.94547760
H        5.24911849      -8.45107220       6.72334696
H        5.29370213     -10.80604250       7.30570104
H        3.02049406     -13.39489158       5.84962951
H        4.04588619     -13.00859370       7.23228140
H        4.78596778     -13.32521837       5.64182839
H        2.42915629     -11.67632448       4.21477248
C        2.14925850      -9.20732729       3.34375643
C        1.42687335      -8.87252359       2.43794068
Br       0.25883765      -8.33117431       0.97331323
