141
Properties=species:S:1:pos:R:3 pbc="F F F"
C        0.00000000       0.00000000       0.00000000
C        0.88161161       0.88161161      -0.88161161
C        0.90913323       2.25915562      -0.67699741
C        1.71360346       3.06547069      -1.48720845
C        2.50827913       2.48953943      -2.49066750
C        2.47126848       1.10136831      -2.68971227
C        1.65191658       0.30085392      -1.88741270
N        3.33914672       3.32300236      -3.28962479
N        3.22316525       4.67397790      -3.25301498
C        4.09378686       5.11266153      -4.16396494
C        4.85761051       4.07697629      -4.73118205
C        4.33880977       2.93260355      -4.15587872
C        5.92625397       4.18882826      -5.70880854
O        5.93265162       5.09883574      -6.52888766
N        6.91315652       3.23552423      -5.53651603
C        8.05412469       3.03715812      -6.34307201
C        8.09778887       3.48617906      -7.66981404
C        9.20930358       3.23258214      -8.47798522
C       10.28876543       2.52735169      -7.96250146
Br      11.79089499       2.17409594      -9.05326369
C       10.26793311       2.07678473      -6.64474154
C        9.15899474       2.33349761      -5.81633670
C        9.21363978       1.82661371      -4.39939191
H        0.31192924       2.71681897       0.10751592
H        1.72504746       4.14041505      -1.31185565
H        3.04031779       0.61370267      -3.47533041
H        1.61847249      -0.77242934      -2.05834837
H        4.16430643       6.17656491      -4.35743146
H        4.59313527       1.89421552      -4.30023736
H        6.87611791       2.72048165      -4.66892609
H        7.25938265       4.01409495      -8.11689718
H        9.21175838       3.58297047      -9.50670512
H       11.12215804       1.52862637      -6.25220457
H        8.72627163       2.51701956      -3.70395947
H       10.25058424       1.73536275      -4.05668454
H        8.73632065       0.84451512      -4.33287798
C       -0.88161161      -0.88161161      -0.88161161
C       -0.43872208      -2.14702527      -1.25953891
C       -1.24502722      -2.95150225      -2.06975313
C       -2.50628785      -2.49689023      -2.48530798
C       -2.94160798      -1.21990830      -2.10083277
C       -2.12399141      -0.41218586      -1.30400593
N       -3.32338230      -3.33888836      -3.28950321
N       -2.83187450      -4.47579276      -3.84249087
C       -3.83912079      -4.95979263      -4.57149991
C       -5.02301085      -4.21430845      -4.42844956
C       -4.65508431      -3.16752547      -3.60468225
C       -6.32053072      -4.47669953      -5.02666051
O       -6.40841272      -5.04214126      -6.10982103
N       -7.37293157      -4.09972582      -4.21253939
C       -8.74962007      -4.16965924      -4.51507549
C       -9.20532572      -4.20877784      -5.83967842
C      -10.57243704      -4.21821341      -6.12922049
C      -11.49592357      -4.19015018      -5.09254483
Br     -13.34582266      -4.19413780      -5.47829416
C      -11.06416521      -4.15652805      -3.76876612
C       -9.69015086      -4.15648172      -3.46219648
C       -9.29908754      -4.13236894      -2.00818893
H        0.52847065      -2.51872125      -0.93098169
H       -0.88429110      -3.93920679      -2.35382026
H       -3.89312702      -0.81031422      -2.42590963
H       -2.46333823       0.58184454      -1.02289783
H       -3.68364628      -5.85948731      -5.15516921
H       -5.22396219      -2.32891260      -3.23471337
H       -7.12913954      -3.87823725      -3.25814886
H       -8.51268406      -4.20034889      -6.67734183
H      -10.89786735      -4.23763962      -7.16592700
H      -11.79849444      -4.13866337      -2.96583118
H       -8.39905914      -4.72649366      -1.82169786
H      -10.08552729      -4.57248505      -1.38461919
H       -9.13017682      -3.10208330      -1.68145364
C       -0.88161161       0.88161161       0.88161161
C       -2.24229318       0.60661103       0.99638205
C       -3.04892188       1.41670811       1.80065261
C       -2.48861563       2.49170567       2.50816476
C       -1.11752813       2.76118522       2.38363570
C       -0.31790616       1.95784399       1.56443305
N       -3.32029750       3.29061996       3.34085640
N       -4.67137982       3.17655410       3.30222421
C       -5.11357214       4.11012369       4.14671750
C       -4.07224047       4.77264696       4.82088143
C       -2.92656311       4.23044061       4.27028832
C       -4.18184152       5.80090768       5.84114157
O       -5.13441873       6.57103168       5.85492460
N       -3.16980712       5.73415234       6.78123732
C       -2.95678563       6.61219444       7.86537474
C       -3.47592545       7.91383295       7.86402357
C       -3.20947546       8.79475605       8.91563943
C       -2.42084107       8.37790152       9.97987599
Br      -2.05016730       9.56754149      11.40054582
C       -1.89945706       7.08656905      10.00343328
C       -2.16775373       6.18545081       8.95562451
C       -1.58073246       4.80238386       9.05652908
H       -2.68645142      -0.23288274       0.46766361
H       -4.11036429       1.18591891       1.88103496
H       -0.64499915       3.60179521       2.88255651
H        0.74096737       2.18291890       1.46244000
H       -6.18139360       4.25093601       4.26597319
H       -1.88585668       4.44317261       4.45855887
H       -2.61000842       4.89416238       6.76135484
H       -4.07127454       8.28521861       7.03388162
H       -3.61587854       9.80214884       8.88340659
H       -1.28612362       6.77151425      10.84535112
H       -2.25611909       4.04556186       8.64556972
H       -1.41611641       4.52311486      10.10340026
H       -0.62294591       4.76123699       8.52953086
C        0.88161161      -0.88161161       0.88161161
C        1.97997010      -0.32906506       1.53625108
C        2.78842507      -1.13798141       2.33987612
C        2.48474352      -2.49831460       2.50542793
C        1.37754320      -3.04508142       1.83972443
C        0.58157871      -2.23518291       1.02342158
N        3.30457408      -3.30085800       3.34634178
N        4.49020323      -2.84133371       3.81862120
C        5.00408440      -3.86819444       4.49813448
C        4.12992336      -4.96761946       4.56822604
C        3.04663193      -4.57572834       3.80493176
C        4.33328337      -6.22639063       5.26421677
O        5.45975508      -6.68253944       5.41808049
N        3.15989140      -6.75601300       5.76929238
C        3.00346235      -7.98411446       6.44677800
C        3.93169558      -9.02344560       6.29864079
C        3.73645278     -10.25620358       6.92721458
C        2.60873983     -10.45786686       7.71201189
Br       2.33517900     -12.12557982       8.55749580
C        1.67649288      -9.43624039       7.87672611
C        1.86528492      -8.18618181       7.25736232
C        0.82184783      -7.12602179       7.49177578
H        2.21702002       0.72651095       1.43072321
H        3.64180185      -0.68907093       2.84644537
H        1.12291895      -4.09832452       1.90810740
H       -0.26601855      -2.67065020       0.49975987
H        5.98482081      -3.76591669       4.94756530
H        2.13729272      -5.09818061       3.55211483
H        2.36380702      -6.13504938       5.76666924
H        4.80987277      -8.91278284       5.66771917
H        4.46693085     -11.04837687       6.78612625
H        0.79906866      -9.60634444       8.49757588
H        1.26638072      -6.12779953       7.55307041
H        0.30894149      -7.28688619       8.44680386
H        0.07899363      -7.14578453       6.68893560
