170
Properties=species:S:1:pos:R:3 pbc="F F F"
C        1.79151564       1.79151564      -1.79151564
C        1.81903725       3.16905964      -1.58690143
C        2.62350749       3.97537471      -2.39711248
C        3.41818315       3.39944345      -3.40057152
C        3.38117250       2.01127234      -3.59961629
C        2.56182060       1.21075795      -2.79731673
N        4.24905075       4.23290638      -4.19952881
N        4.13306928       5.58388192      -4.16291901
C        5.00369088       6.02256555      -5.07386896
C        5.76751453       4.98688032      -5.64108608
C        5.24871379       3.84250758      -5.06578274
C        6.83615799       5.09873229      -6.61871257
O        6.84255564       6.00873976      -7.43879168
N        7.82306054       4.14542826      -6.44642006
C        8.96402871       3.94706214      -7.25297603
C        9.00769290       4.39608308      -8.57971807
C       10.11920761       4.14248616      -9.38788924
C       11.19866945       3.43725571      -8.87240549
C       11.17783714       2.98668876      -7.55464556
C       10.06889877       3.24340164      -6.72624072
C       10.12354380       2.73651773      -5.30929594
H        1.22183327       3.62672300      -0.80238810
H        2.63495148       5.05031907      -2.22175967
H        3.95022181       1.52360670      -4.38523443
H        2.52837651       0.13747469      -2.96825240
H        5.07421046       7.08646893      -5.26733548
H        5.50303930       2.80411955      -5.21014139
H        7.78602193       3.63038568      -5.57883011
H        8.16928667       4.92399897      -9.02680121
H       10.12166240       4.49287449     -10.41660915
H       12.03206206       2.43853039      -7.16210860
H        9.63617566       3.42692358      -4.61386350
H       11.16048826       2.64526678      -4.96658857
H        9.64622468       1.75441915      -5.24278200
C       12.34333418       3.16806496      -9.70359680
C       13.30199088       2.94261769     -10.39971953
Br      14.85205770       2.57808854     -11.52529110
C       -1.79151564      -1.79151564      -1.79151564
C       -1.86569781      -3.16103345      -1.54826707
C       -2.67005755      -3.96751697      -2.35842015
C       -3.41813473      -3.39893783      -3.40112557
C       -3.33431707      -2.01890996      -3.63883410
C       -2.51503258      -1.21888455      -2.83597815
N       -4.24999706      -4.23145347      -4.20003542
N       -4.17517912      -5.58352897      -4.12116212
C       -5.03184809      -6.02377528      -5.04450203
C       -5.74803125      -4.98380150      -5.66364818
C       -5.21232831      -3.83828872      -5.10638708
C       -6.79095562      -5.09377363      -6.66887360
O       -6.80071043      -6.02710931      -7.46226734
N       -7.75373873      -4.10779221      -6.55337790
C       -8.86465918      -3.90066384      -7.39874386
C       -8.88342206      -4.38733983      -8.71273215
C       -9.96323194      -4.12592278      -9.56042829
C      -11.03571420      -3.37497681      -9.09763965
C      -11.03945958      -2.88636540      -7.79334649
C       -9.96289812      -3.15022239      -6.92542062
C      -10.04324154      -2.60023346      -5.52588247
H       -1.30512343      -3.61224989      -0.73357105
H       -2.71837210      -5.03602223      -2.15263590
H       -3.86584043      -1.53855939      -4.45466312
H       -2.44491295      -0.15254096      -3.03664968
H       -5.12825206      -7.09047297      -5.20928985
H       -5.43153086      -2.79774603      -5.28802334
H       -7.72643330      -3.56855891      -5.70024551
H       -8.04850589      -4.95216285      -9.11941811
H       -9.94647175      -4.50640915     -10.57826515
H      -11.88801246      -2.30247763      -7.44221096
H       -9.59674010      -3.28347290      -4.79674973
H      -11.08645700      -2.46908355      -5.21680305
H       -9.53915598      -1.63073201      -5.47353784
C      -12.14752184      -3.09770746      -9.96976664
C      -13.07866073      -2.86549439     -10.70017299
Br     -14.58423358      -2.49002548     -11.88117829
C       -1.79151564       1.79151564       1.79151564
C       -2.79026999       1.21324680       2.57148153
C       -3.59912088       2.02177252       3.37510128
C       -3.39420049       3.40979818       3.41419946
C       -2.38701531       3.98209046       2.62295536
C       -1.59144302       3.17064236       1.80780990
N       -4.21107634       4.21413840       4.25627120
N       -5.31759690       3.70720514       4.85506817
C       -5.86036534       4.74428743       5.49547263
C       -5.07453082       5.90769217       5.41325793
C       -4.02298500       5.53734760       4.59667150
C       -5.32604086       7.19968789       6.02787410
O       -6.47094881       7.58175701       6.23738126
N       -4.16469521       7.85387378       6.39633987
C       -4.05748790       9.14063035       6.96594863
C       -5.07461743      10.09285883       6.81601779
C       -4.93283745      11.38320007       7.33354548
C       -3.76977709      11.73046401       8.00808956
C       -2.74884800      10.79746333       8.17286012
C       -2.88214232       9.49114422       7.66525459
C       -1.74241748       8.53369983       7.89324016
H       -2.94897183       0.13791985       2.56405268
H       -4.37368801       1.55282943       3.98051278
H       -2.21341717       5.05342143       2.59222434
H       -0.82281116       3.62442095       1.18687148
H       -6.79360868       4.60584512       6.02856108
H       -3.17984307       6.10392615       4.23353102
H       -3.32371903       7.29557632       6.37594236
H       -5.98551448       9.86694647       6.26762590
H       -5.73302761      12.10501362       7.19310482
H       -1.84422105      11.08159542       8.70688458
H       -2.09956756       7.51336263       8.06403255
H       -1.17454879       8.80839942       8.78939539
H       -1.06526071       8.54406784       7.03409728
C       -3.61674953      13.06090613       8.53734028
C       -3.48858894      14.17515140       8.98058776
Br      -3.28136412      15.97679177       9.69728145
C        1.79151564      -1.79151564       1.79151564
C        2.90706737      -1.24566613       2.42226483
C        3.71544557      -2.05465153       3.22589758
C        3.39475371      -3.40791962       3.41552480
C        2.27028402      -3.94802059       2.77375652
C        1.47422359      -3.13841620       1.95725549
N        4.21513807      -4.21016473       4.25618314
N        5.41396119      -3.76119709       4.70471192
C        5.92290320      -4.78557943       5.39164277
C        5.03419970      -5.87107319       5.49020803
C        3.94565678      -5.47445622       4.73689111
C        5.22960382      -7.12257086       6.20142816
O        6.35154479      -7.59278580       6.34575649
N        4.05620958      -7.62780513       6.73089414
C        3.89206983      -8.84367781       7.42831925
C        4.80307589      -9.89839826       7.28201989
C        4.59935324     -11.11906301       7.93116677
C        3.48038803     -11.29306470       8.73487793
C        2.56535638     -10.25574956       8.89806552
C        2.76301112      -9.01756223       8.25796778
C        1.73837674      -7.93910829       8.49187244
H        3.15764964      -0.19526438       2.29803034
H        4.58243159      -1.61097789       3.71362074
H        2.00162487      -4.99636648       2.86107159
H        0.61296007      -3.56897815       1.45216537
H        6.91142892      -4.69113470       5.82545125
H        3.02535316      -5.98720994       4.50473713
H        3.26914423      -6.99544360       6.73064989
H        5.67348958      -9.80954984       6.63704743
H        5.31628672     -11.92370331       7.79115601
H        1.69469806     -10.40418206       9.53382094
H        2.19800100      -6.94667374       8.53228800
H        1.23714734      -8.07881333       9.45638293
H        0.98373131      -7.95957129       7.70012323
C        3.26313278     -12.55139049       9.40047266
C        3.08118151     -13.60523834       9.95790825
Br       2.78698170     -15.30922119      10.85923446
C       -0.00445707       0.01189536      -1.78238275
H       -0.66409135       0.67374010      -2.43557963
H        0.65740317      -0.63156657      -2.45157240
C       -0.90989263      -0.90692880      -0.91072765
C        0.90977584       0.90977584      -0.90977584
C       -0.00465871       1.77757030       0.00794375
H       -0.66225468       2.44313916      -0.64384735
H        0.64322798       2.43503045       0.67728295
C       -1.78241447       0.00034974      -0.00472694
H       -2.45427497      -0.65498947       0.64260836
H       -2.43311707       0.67328779      -0.65473579
C       -0.91132561       0.90220522       0.91563759
C       -0.01476271      -0.02253852       1.78660255
H       -0.67934791      -0.69751639       2.42135241
H        0.63392994       0.61504881       2.47327442
C        0.01484550      -1.77751727      -0.01636693
H        0.67870853      -2.42144646      -0.68295456
H       -0.62264859      -2.45592969       0.64226336
C        1.78714474       0.01002794       0.00389507
H        2.44202412       0.67113390       0.66197326
H        2.45385902      -0.65136977      -0.64189061
C        0.91606151      -0.90478549       0.90901405
