137
Properties=species:S:1:pos:R:3 pbc="F F F"
C        0.00000000       0.00000000       0.00000000
C        0.88129258       0.88129258      -0.88129258
C        1.07638915       0.54830849      -2.21829450
C        1.88324652       1.35866953      -3.02258490
C        2.48752175       2.51082648      -2.50036602
C        2.28820565       2.82771695      -1.15472873
C        1.48708313       2.01403819      -0.34512400
N        3.27722966       3.27723763      -3.38089565
C        3.81290379       4.53172581      -3.15491073
O        3.63478060       5.22331018      -2.15891472
C        4.60681373       5.03570857      -4.26676011
C        4.91432593       6.38171590      -4.54221244
N        5.65302300       6.53280684      -5.64127571
N        5.88973458       5.27020626      -6.07570824
C        5.25564876       4.34161848      -5.27249389
C        6.70164812       5.03211827      -7.22173964
C        7.00680618       3.72940500      -7.64254754
C        7.81432803       3.52743936      -8.76772341
C        8.31328286       4.62062554      -9.47380929
C        8.01521452       5.91824924      -9.06714382
C        7.21256461       6.12492059      -7.94171123
H        0.60510074      -0.33335410      -2.64453392
H        2.01686355       1.08165461      -4.06518490
H        2.75052231       3.69738259      -0.69706429
H        1.34576463       2.27830792       0.69983425
H        3.38194663       2.90642135      -4.31481296
H        4.60960565       7.26077423      -3.98615958
H        5.33908256       3.28342350      -5.46207358
H        6.64727563       2.85003713      -7.11823997
H        8.05112442       2.51398594      -9.08275580
H        8.40084475       6.77548895      -9.61307062
H        6.99204390       7.14777079      -7.63868561
C        9.14452984       4.40552145     -10.62981910
C        9.84069919       4.22537178     -11.59797732
Br      10.96634614       3.93408500     -13.16340727
C       -0.88129258      -0.88129258      -0.88129258
C       -2.17231954      -0.47095968      -1.19971292
C       -2.97600633      -1.28030520      -2.00818942
C       -2.49092413      -2.49494133      -2.51284880
C       -1.19568648      -2.89662475      -2.17834010
C       -0.39145222      -2.09198134      -1.36281177
N       -3.36208903      -3.24559715      -3.32767675
C       -3.05489814      -4.36346346      -4.08117872
O       -1.94184379      -4.85810753      -4.21705417
C       -4.19755468      -4.91927655      -4.79245118
C       -4.16189851      -5.74187133      -5.93448444
N       -5.37491757      -6.08468280      -6.36750518
N       -6.23103934      -5.53153711      -5.47307264
C       -5.54837853      -4.80576999      -4.51561261
C       -7.63689979      -5.73058853      -5.58801770
C       -8.52741364      -5.21811402      -4.63323105
C       -9.90304106      -5.43751097      -4.76893876
C      -10.39020980      -6.16238841      -5.85511947
C       -9.51627590      -6.67387428      -6.81045740
C       -8.14137280      -6.46083352      -6.67699011
H       -2.56099093       0.47390779      -0.82919743
H       -3.97903910      -0.93672191      -2.24794205
H       -0.78058613      -3.83790071      -2.52648235
H        0.61336879      -2.42377842      -1.11382867
H       -4.29071737      -2.86588264      -3.44658092
H       -3.29017444      -6.08984073      -6.47652429
H       -6.06710202      -4.30133038      -3.71614725
H       -8.19163725      -4.65593319      -3.76798230
H      -10.58542843      -5.04209985      -4.02033789
H       -9.88920223      -7.24005598      -7.66014610
H       -7.47386581      -6.87047605      -7.43415844
C      -11.80663156      -6.38540442      -5.98783442
C      -12.99288479      -6.57218032      -6.09898318
Br     -14.91095592      -6.87418115      -6.27870134
C       -0.88129258       0.88129258       0.88129258
C       -1.03575182       2.23036236       0.57687795
C       -1.84475891       3.03401438       1.38572767
C       -2.51304974       2.49278510       2.49287941
C       -2.34216297       1.13870529       2.78978307
C       -1.52670013       0.33335914       1.98618606
N       -3.31614507       3.36933913       3.24987873
C       -4.20464669       3.03857678       4.25631685
O       -4.49232782       1.90425317       4.62042450
C       -4.86027448       4.19149112       4.85751680
C       -6.07850028       4.19649335       5.56326064
N       -6.43033876       5.41044010       5.98632668
N       -5.40905809       6.21845235       5.60813864
C       -4.44981694       5.51179777       4.90814642
C       -5.41340372       7.60430319       5.93779911
C       -4.33330690       8.43648336       5.60896844
C       -4.36308000       9.79262343       5.95378737
C       -5.46777553      10.31882549       6.62111666
C       -6.54678732       9.50321537       6.95060490
C       -6.51981354       8.14743409       6.61194881
H       -0.53669249       2.66484878      -0.28526071
H       -1.95467536       4.08365262       1.12537508
H       -2.82113529       0.67609470       3.64773920
H       -1.40660609      -0.71790204       2.23553425
H       -3.30954960       4.33631234       2.95731898
H       -6.73128574       3.35609477       5.76915896
H       -3.55870484       5.99078353       4.53509127
H       -3.45003435       8.06770887       5.09780952
H       -3.51834090      10.42883406       5.70069121
H       -7.41162547       9.90683416       7.47094468
H       -7.37311391       7.52552113       6.87986525
C       -5.49118703      11.71473421       6.97394916
C       -5.51079416      12.88380775       7.26944637
Br      -5.54249724      14.77410080       7.74724038
C        0.88129258      -0.88129258       0.88129258
C        0.30176858      -1.86779682       1.67342674
C        1.11239765      -2.67379383       2.47830948
C        2.50444044      -2.50802133       2.48625249
C        3.07054344      -1.50871828       1.69138962
C        2.26073185      -0.69518193       0.89033154
N        3.24893221      -3.36809172       3.31833901
C        4.62257623      -3.52126856       3.35569553
O        5.43002309      -2.97121993       2.61576247
C        5.07556859      -4.47886071       4.35485311
C        6.30203173      -5.17011683       4.36610571
N        6.42732409      -5.99162884       5.40815262
N        5.29596667      -5.80704215       6.13264026
C        4.44994020      -4.90792962       5.51189130
C        5.09637202      -6.49538978       7.36374423
C        3.96072178      -6.26426564       8.15377129
C        3.79673951      -6.94985863       9.36289265
C        4.75995922      -7.86601351       9.78174496
C        5.89009891      -8.10557875       9.00492992
C        6.06020773      -7.42029671       7.79869199
H       -0.77425201      -2.02040909       1.67012349
H        0.63792891      -3.44124925       3.08452490
H        4.14107135      -1.32625519       1.67764265
H        2.72161961       0.07729208       0.27991076
H        2.71046359      -4.01098260       3.88173474
H        7.10346636      -5.11457319       3.63849992
H        3.50380268      -4.63165239       5.94912458
H        3.19056548      -5.55415953       7.87082773
H        2.91638317      -6.75940557       9.97207743
H        6.64530853      -8.81873157       9.32536421
H        6.95197625      -7.62055593       7.20596811
C        4.58545175      -8.56694297      11.02747568
C        4.43930174      -9.15397139      12.07077516
Br       4.20298953     -10.10314671      13.75770217
