150
Properties=species:S:1:pos:R:3 pbc="F F F"
C        1.79119660       1.79119660      -1.79119660
C        1.98629318       1.45821251      -3.12819852
C        2.79315055       2.26857356      -3.93248893
C        3.39742578       3.42073051      -3.41027004
C        3.19810967       3.73762098      -2.06463276
C        2.39698716       2.92394222      -1.25502802
N        4.18713368       4.18714165      -4.29079967
C        4.72280781       5.44162983      -4.06481476
O        4.54468462       6.13321420      -3.06881874
C        5.51671776       5.94561259      -5.17666413
C        5.82422995       7.29161993      -5.45211646
N        6.56292702       7.44271086      -6.55117974
N        6.79963861       6.18011029      -6.98561226
C        6.16555279       5.25152250      -6.18239792
C        7.61155214       5.94202229      -8.13164366
C        7.91671020       4.63930902      -8.55245156
C        8.72423205       4.43734338      -9.67762743
C        9.22318688       5.53052956     -10.38371331
Br      10.31418192       5.24820975     -11.90095307
C        8.92511854       6.82815327      -9.97704784
C        8.12246864       7.03482461      -8.85161526
H        1.51500477       0.57654993      -3.55443795
H        2.92676757       1.99155863      -4.97508892
H        3.66042633       4.60728662      -1.60696832
H        2.25566866       3.18821195      -0.21006977
H        4.29185065       3.81632537      -5.22471698
H        5.51950968       8.17067825      -4.89606361
H        6.24898658       4.19332753      -6.37197760
H        7.55717966       3.75994116      -8.02814399
H        8.96102844       3.42388997      -9.99265983
H        9.31074878       7.68539297     -10.52297464
H        7.90194792       8.05767481      -8.54858963
C       -1.79119660      -1.79119660      -1.79119660
C       -2.70366928      -2.66349863      -1.20553630
C       -3.50997116      -3.46814887      -2.01609300
C       -3.41884048      -3.39639809      -3.41318776
C       -2.49302355      -2.52137148      -3.98596838
C       -1.67905225      -1.72008990      -3.17681526
N       -4.27414063      -4.23443856      -4.15649582
C       -4.49860612      -4.21004750      -5.52059877
O       -4.03095518      -3.40160097      -6.31416142
C       -5.42704552      -5.23475176      -5.97719720
C       -6.18156079      -5.22064569      -7.16575987
N       -6.95455098      -6.29749466      -7.30477198
N       -6.67300260      -7.06764418      -6.22471438
C       -5.76257915      -6.44343505      -5.39345900
C       -7.28616910      -8.34241938      -6.05662961
C       -6.95464754      -9.17565383      -4.97816942
C       -7.56809311     -10.42654789      -4.84456187
C       -8.51205913     -10.84436566      -5.78100496
Br      -9.33408433     -12.53583795      -5.59342246
C       -8.85103159     -10.02503968      -6.85424838
C       -8.23807779      -8.77672629      -6.99410443
H       -2.79837384      -2.72310071      -0.12451809
H       -4.21907743      -4.13796005      -1.53637765
H       -2.36912246      -2.44344553      -5.06211327
H       -0.96442722      -1.04650654      -3.64301661
H       -4.85777077      -4.85812683      -3.61699541
H       -6.20611459      -4.45129659      -7.92884035
H       -5.41412344      -6.91278292      -4.48738535
H       -6.21960126      -8.89459680      -4.23106675
H       -7.30000775     -11.06863118      -4.00893931
H       -9.58640883     -10.34440834      -7.58829922
H       -8.51571695      -8.15100404      -7.84149137
C       -1.79119660       1.79119660       1.79119660
C       -2.58526135       2.77600775       1.21143511
C       -3.39203183       3.58034924       2.02183195
C       -3.42006408       3.39695882       3.41140343
C       -2.61189695       2.40932338       3.97914308
C       -1.79736523       1.60760320       3.17098897
N       -4.26758105       4.24349696       4.15399700
C       -4.60305820       4.13522703       5.49096717
O       -4.26316172       3.23435303       6.24920282
C       -5.48604295       5.19470079       5.95825074
C       -6.33333334       5.15276581       7.08186719
N       -7.03217208       6.27526561       7.24937992
N       -6.60709774       7.09882548       6.25943793
C       -5.68164290       6.46693490       5.45089540
C       -7.10736860       8.42810147       6.14974803
C       -6.62802860       9.31019093       5.17025126
C       -7.13316062      10.61317075       5.09287149
C       -8.11594423      11.03476734       5.98671819
Br      -8.79099182      12.79658246       5.87577047
C       -8.60122455      10.16749615       6.96159895
C       -8.09689433       8.86665284       7.04536133
H       -2.58730835       2.92392795       0.13475635
H       -4.00773310       4.33948573       1.54619629
H       -2.58180998       2.24119020       5.05168108
H       -1.17536634       0.84528300       3.63330104
H       -4.75718382       4.95110303       3.62460615
H       -6.47723369       4.33292591       7.77609194
H       -5.22671162       6.97307099       4.61450910
H       -5.85798519       9.02726321       4.46001641
H       -6.75087433      11.29222116       4.33448275
H       -9.36766819      10.48950627       7.66194193
H       -8.48840347       8.20375623       7.81605266
C        1.79119660      -1.79119660       1.79119660
C        1.82455617      -1.58163785       3.16651019
C        2.63201701      -2.39169872       3.97049730
C        3.39863492      -3.42183209       3.40795932
C        3.36024020      -3.61495637       2.02516684
C        2.55861265      -2.80052235       1.21682240
N        4.17741592      -4.19787652       4.28978257
C        4.85893037      -5.36644511       4.00387692
O        4.84754300      -5.96480940       2.93436517
C        5.59301090      -5.90619401       5.13978957
C        6.01106818      -7.23869989       5.31819827
N        6.65513275      -7.43286887       6.46881600
N        6.71804961      -6.20544240       7.04186915
C        6.06932281      -5.26222815       6.26792225
C        7.38990888      -6.01224773       8.28306148
C        7.51772465      -4.73727417       8.85347197
C        8.19093106      -4.57809977      10.07017202
C        8.73200211      -5.68690911      10.71851853
Br       9.64082595      -5.46219248      12.36032632
C        8.60935368      -6.95764285      10.16332312
C        7.94148280      -7.12099349       8.94643222
H        1.22662980      -0.79694051       3.62242233
H        2.63789547      -2.21283779       5.04268187
H        3.95098652      -4.38536131       1.53833343
H        2.54400949      -2.96724084       0.14270004
H        4.15515313      -3.91758878       5.26015108
H        5.85249417      -8.08012599       4.65363138
H        6.02458621      -4.22621760       6.56348790
H        7.11981097      -3.84593967       8.37951416
H        8.29092553      -3.58500557      10.50164714
H        9.02879293      -7.82685806      10.66346540
H        7.85745188      -8.12310986       8.52765062
C       -0.00445707       0.01189536      -1.78238275
H       -0.66409135       0.67374010      -2.43557963
H        0.65740317      -0.63156657      -2.45157240
C       -0.90989263      -0.90692880      -0.91072765
C        0.90977584       0.90977584      -0.90977584
C       -0.00465871       1.77757030       0.00794375
H       -0.66225468       2.44313916      -0.64384735
H        0.64322798       2.43503045       0.67728295
C       -1.78241447       0.00034974      -0.00472694
H       -2.45427497      -0.65498947       0.64260836
H       -2.43311707       0.67328779      -0.65473579
C       -0.91132561       0.90220522       0.91563759
C       -0.01476271      -0.02253852       1.78660255
H       -0.67934791      -0.69751639       2.42135241
H        0.63392994       0.61504881       2.47327442
C        0.01484550      -1.77751727      -0.01636693
H        0.67870853      -2.42144646      -0.68295456
H       -0.62264859      -2.45592969       0.64226336
C        1.78714474       0.01002794       0.00389507
H        2.44202412       0.67113390       0.66197326
H        2.45385902      -0.65136977      -0.64189061
C        0.91606151      -0.90478549       0.90901405
