158
Properties=species:S:1:pos:R:3 pbc="F F F"
C        1.79119660       1.79119660      -1.79119660
C        1.98629318       1.45821251      -3.12819852
C        2.79315055       2.26857356      -3.93248893
C        3.39742578       3.42073051      -3.41027004
C        3.19810967       3.73762098      -2.06463276
C        2.39698716       2.92394222      -1.25502802
N        4.18713368       4.18714165      -4.29079967
C        4.72280781       5.44162983      -4.06481476
O        4.54468462       6.13321420      -3.06881874
C        5.51671776       5.94561259      -5.17666413
C        5.82422995       7.29161993      -5.45211646
N        6.56292702       7.44271086      -6.55117974
N        6.79963861       6.18011029      -6.98561226
C        6.16555279       5.25152250      -6.18239792
C        7.61155214       5.94202229      -8.13164366
C        7.91671020       4.63930902      -8.55245156
C        8.72423205       4.43734338      -9.67762743
C        9.22318688       5.53052956     -10.38371331
C        8.92511854       6.82815327      -9.97704784
C        8.12246864       7.03482461      -8.85161526
H        1.51500477       0.57654993      -3.55443795
H        2.92676757       1.99155863      -4.97508892
H        3.66042633       4.60728662      -1.60696832
H        2.25566866       3.18821195      -0.21006977
H        4.29185065       3.81632537      -5.22471698
H        5.51950968       8.17067825      -4.89606361
H        6.24898658       4.19332753      -6.37197760
H        7.55717966       3.75994116      -8.02814399
H        8.96102844       3.42388997      -9.99265983
H        9.31074878       7.68539297     -10.52297464
H        7.90194792       8.05767481      -8.54858963
C       10.05443386       5.31542548     -11.53972312
C       10.75060321       5.13527581     -12.50788134
Br      11.87625016       4.84398902     -14.07331130
C       -1.79119660      -1.79119660      -1.79119660
C       -2.74204188      -2.62299976      -1.20766257
C       -3.54818702      -3.42776628      -2.01825974
C       -3.41838225      -3.39626118      -3.41378290
C       -2.45446777      -2.56173842      -3.98415721
C       -1.64071285      -1.76057814      -3.17466641
N       -4.27616525      -4.23128434      -4.15762542
C       -4.46388178      -4.23790021      -5.52747040
O       -3.95379256      -3.46381504      -6.32910997
C       -5.40735315      -5.24977159      -5.98186975
C       -6.12964330      -5.24795542      -7.19036763
N       -6.92755182      -6.30743734      -7.32182845
N       -6.69548590      -7.05523569      -6.21463956
C       -5.79071992      -6.43296414      -5.37578914
C       -7.34712761      -8.30840472      -6.02968576
C       -7.06678864      -9.12060247      -4.92107967
C       -7.71715510     -10.35083272      -4.77121504
C       -8.64708590     -10.76882214      -5.72152171
C       -8.93538411      -9.97018558      -6.82474997
C       -8.28541431      -8.74269023      -6.98080397
H       -2.86676419      -2.65082120      -0.12840725
H       -4.28754262      -4.06544546      -1.54042704
H       -2.30020241      -2.51624336      -5.05823549
H       -0.89609632      -1.11890925      -3.63894480
H       -4.89046116      -4.82456110      -3.61787074
H       -6.11326840      -4.49915103      -7.97383211
H       -5.47907453      -6.88664420      -4.44857298
H       -6.34434124      -8.83889558      -4.16202798
H       -7.48863998     -10.97691401      -3.91202424
H       -9.65954241     -10.28981498      -7.56975900
H       -8.52360914      -8.13302494      -7.85157828
C       -9.31158176     -12.03630083      -5.56169987
C       -9.86809705     -13.09781423      -5.42784908
Br     -10.76793520     -14.81419163      -5.21142366
C       -1.79119660       1.79119660       1.79119660
C       -2.60597158       2.75757512       1.20915751
C       -3.41266161       3.56196561       2.01958581
C       -3.41986910       3.39684692       3.41171031
C       -2.59111528       2.42766998       3.98157815
C       -1.77667085       1.62603295       3.17325360
N       -4.26875957       4.24198006       4.15433538
C       -4.58505872       4.14720110       5.49699258
O       -4.22313713       3.26113305       6.26244738
C       -5.47590075       5.20107637       5.96201736
C       -6.30763050       5.16299947       7.09733637
N       -7.01916478       6.27830854       7.25934430
N       -6.61827764       7.09408243       6.25300109
C       -5.69520929       6.46370562       5.44055830
C       -7.13771177       8.41504281       6.13246352
C       -6.68321438       9.29019296       5.13506344
C       -7.20672965      10.58523030       5.04724291
C       -8.18317294      11.00573515       5.94852166
C       -8.64386905      10.14526033       6.94119028
C       -8.12109971       8.85243400       7.03537480
H       -2.62422798       2.89102274       0.13074193
H       -4.04470629       4.30646106       1.54224778
H       -2.54460789       2.27432806       5.05574530
H       -1.13846311       0.87825914       3.63722813
H       -4.77474835       4.93590074       3.62224392
H       -6.43135126       4.35070036       7.80419992
H       -5.25819012       6.96456297       4.59153862
H       -5.91890424       9.00797999       4.41838058
H       -6.84362758      11.25905592       4.27489474
H       -9.40523419      10.46646387       7.64741833
H       -8.49347674       8.19480221       7.81993341
C       -8.71650624      12.33992413       5.85315209
C       -9.16317288      13.45730741       5.77328007
Br      -9.88539506      15.26402165       5.64413377
C        1.79119660      -1.79119660       1.79119660
C        1.88186905      -1.53487087       3.15596429
C        2.68911238      -2.34505029       3.96005036
C        3.39816016      -3.42147535       3.40879082
C        3.30276360      -3.66146689       2.03613291
C        2.50134110      -2.84728487       1.22733143
N        4.18078359      -4.19390844       4.29038298
C        4.81003799      -5.39579316       4.02342125
O        4.73878836      -6.03049888       2.97743032
C        5.56554578      -5.92169353       5.15175516
C        5.94281001      -7.26143869       5.36371764
N        6.62107478      -7.43841181       6.49733103
N        6.74780593      -6.19473711       7.02281812
C        6.10485729      -5.25629181       6.23832410
C        7.47071216      -5.98267440       8.23183153
C        7.66383126      -4.69396566       8.75067387
C        8.38599895      -4.51678796       9.93641595
C        8.91105347      -5.62110889      10.60526740
C        8.72379704      -6.90523734      10.10128528
C        8.00680462      -7.08678663       8.91531726
H        1.32881049      -0.71344226       3.60373989
H        2.74024068      -2.12901811       5.02415634
H        3.84802844      -4.46944506       1.55720776
H        2.44185477      -3.05094088       0.16115472
H        4.20366289      -3.87912765       5.25010246
H        5.73075791      -8.11933846       4.73615516
H        6.10726844      -4.20960907       6.49741420
H        7.28046250      -3.80592903       8.25887329
H        8.53639220      -3.51346106      10.32772498
H        9.13039187      -7.77104697      10.61767754
H        7.87249954      -8.09925928       8.53645354
C        9.65410453      -5.43140478      11.82407315
C       10.27640979      -5.27252759      12.84482297
Br      11.28262477      -5.01563661      14.49528910
C       -0.00445707       0.01189536      -1.78238275
H       -0.66409135       0.67374010      -2.43557963
H        0.65740317      -0.63156657      -2.45157240
C       -0.90989263      -0.90692880      -0.91072765
C        0.90977584       0.90977584      -0.90977584
C       -0.00465871       1.77757030       0.00794375
H       -0.66225468       2.44313916      -0.64384735
H        0.64322798       2.43503045       0.67728295
C       -1.78241447       0.00034974      -0.00472694
H       -2.45427497      -0.65498947       0.64260836
H       -2.43311707       0.67328779      -0.65473579
C       -0.91132561       0.90220522       0.91563759
C       -0.01476271      -0.02253852       1.78660255
H       -0.67934791      -0.69751639       2.42135241
H        0.63392994       0.61504881       2.47327442
C        0.01484550      -1.77751727      -0.01636693
H        0.67870853      -2.42144646      -0.68295456
H       -0.62264859      -2.45592969       0.64226336
C        1.78714474       0.01002794       0.00389507
H        2.44202412       0.67113390       0.66197326
H        2.45385902      -0.65136977      -0.64189061
C        0.91606151      -0.90478549       0.90901405
