149
Properties=species:S:1:pos:R:3 pbc="F F F"
C        0.00000000       0.00000000       0.00000000
C        0.88170534       0.88170534      -0.88170534
C        2.22932460       0.56840259      -1.04098367
C        3.04228657       1.37120725      -1.84860349
C        2.50353025       2.49317693      -2.49717817
C        1.14414313       2.79872777      -2.32611926
C        0.33486459       1.99228091      -1.52008920
N        3.31089042       3.32598305      -3.32380775
N        2.79896077       4.42797629      -3.92668556
C        3.82444268       4.95173691      -4.60109076
C        5.01505403       4.21214451      -4.45951110
C        4.64684975       3.16899969      -3.62953629
C        6.30460648       4.49566543      -5.06342269
O        6.48566606       5.47455304      -5.78033963
N        7.29054493       3.58595790      -4.77264832
C        8.63514433       3.71366054      -5.27649554
C        9.26340779       2.34850517      -5.38085678
C        9.96779599       1.79598101      -4.30080495
C       10.49214308       0.50428826      -4.38398577
C       10.31317256      -0.25029794      -5.54330121
C        9.60676061       0.29006178      -6.61565688
C        9.07860204       1.57844818      -6.53923469
H        2.65854899      -0.29731918      -0.54248410
H        4.08613611       1.09029576      -1.94235352
H        0.69813892       3.66225893      -2.81798619
H       -0.71637735       2.24072829      -1.39993835
H        3.66857554       5.85497986      -5.17941517
H        5.21336890       2.33792602      -3.24454865
H        7.10991343       2.84329779      -4.11656817
H        9.19665445       4.34708644      -4.58046904
H        8.63624528       4.21929807      -6.24866415
H       10.10923822       2.36767594      -3.38547848
H       11.03911011       0.08356085      -3.54346811
H       10.72363170      -1.25496973      -5.59987681
H        8.51479567       1.98691241      -7.37571043
C        9.41206492      -0.49124307      -7.80949786
C        9.24900727      -1.14558589      -8.80933969
Br       8.98535685      -2.20360289     -10.42599936
C       -0.88170534      -0.88170534      -0.88170534
C       -0.38464295      -2.08992092      -1.36414699
C       -1.18777428      -2.90313072      -2.17119231
C       -2.49282666      -2.50326453      -2.49779416
C       -2.98040702      -1.28196858      -2.00661456
C       -2.17519453      -0.47362645      -1.19841371
N       -3.32924939      -3.31336833      -3.31806350
N       -4.57973495      -2.91408787      -3.65979980
C       -5.05393131      -3.90196935      -4.42136969
C       -4.13756440      -4.95847609      -4.59066915
C       -3.03566596      -4.54570017      -3.86401959
C       -4.33550718      -6.18310728      -5.34508015
O       -5.37632006      -6.41114459      -5.95309407
N       -3.27601910      -7.05541927      -5.31771277
C       -3.29161690      -8.31497374      -6.01870977
C       -2.38576634      -9.29167485      -5.31532856
C       -1.02726983      -9.38463660      -5.65267553
C       -0.18122455     -10.24706061      -4.95213196
C       -0.68156415     -11.02010144      -3.90451026
C       -2.02796694     -10.92516959      -3.55934275
C       -2.87845339     -10.06481153      -4.25301999
H        0.62527318      -2.40975664      -1.11923044
H       -0.75858331      -3.83449252      -2.52570956
H       -3.98952742      -0.94641122      -2.24244540
H       -2.56834110       0.46784384      -0.82379204
H       -6.05659214      -3.82152257      -4.82485586
H       -2.08645557      -5.02259847      -3.68678953
H       -2.41592531      -6.78570028      -4.86815381
H       -2.94675503      -8.13433555      -7.04311935
H       -4.31273793      -8.70713058      -6.08433899
H       -0.61842239      -8.78222012      -6.46175012
H        0.87030215     -10.31549090      -5.22095032
H       -0.01654209     -11.68822553      -3.36377116
H       -3.92539844      -9.98536923      -3.96665083
C       -2.54415863     -11.71478025      -2.47138083
C       -2.97646917     -12.37607918      -1.56021272
Br      -3.67547875     -13.44534362      -0.08693096
C       -0.88170534       0.88170534       0.88170534
C       -0.51696370       2.20509923       1.11664793
C       -1.32112665       3.01870089       1.92226977
C       -2.49377341       2.50381117       2.49630077
C       -2.84837965       1.16752690       2.25308360
C       -2.04308281       0.35878996       1.44536192
N       -3.32829182       3.31197774       3.32041166
N       -4.44559033       2.80725618       3.90077610
C       -4.96066892       3.82864925       4.58795218
C       -4.20371516       5.01108419       4.47191028
C       -3.15802842       4.64168278       3.64567453
C       -4.48575040       6.29993695       5.07800726
O       -5.45896304       6.47832389       5.80327179
N       -3.58647536       7.29078863       4.77188715
C       -3.70247436       8.62987615       5.29294989
C       -3.05968248       9.59833987       4.33474739
C       -1.69905578       9.92214863       4.44337754
C       -1.09683442      10.77120530       3.51237739
C       -1.84522836      11.30006989       2.46087759
C       -3.19475210      10.97473729       2.34298988
C       -3.80255384      10.12605439       3.26767669
H        0.38992976       2.61493363       0.67871004
H       -0.99721300       4.04229837       2.07927403
H       -3.75328149       0.74100640       2.68409616
H       -2.33282578      -0.67300363       1.26446714
H       -5.87623039       3.67858357       5.14815661
H       -2.32575536       5.20763707       3.26245115
H       -2.76268427       7.07194814       4.23514698
H       -3.20065169       8.65673597       6.26682227
H       -4.75388554       8.88801160       5.46231036
H       -1.09827492       9.51140822       5.25270949
H       -0.04209093      11.01957966       3.60446847
H       -1.36903572      11.95941861       1.74008445
H       -4.85345136       9.86480479       3.15916235
C       -3.96658829      11.51150021       1.25223121
C       -4.61300110      11.96103914       0.33872083
Br      -5.65819594      12.68790559      -1.13834820
C        0.88170534      -0.88170534       0.88170534
C        1.91236066      -0.30587729       1.62047291
C        2.72287094      -1.10781112       2.43141525
C        2.50127305      -2.49194323       2.50066906
C        1.46038578      -3.05955281       1.74905157
C        0.65132165      -2.25402005       0.94189300
N        3.31320563      -3.32917722       3.31829837
N        3.11991153      -4.67103825       3.36267284
C        4.04754308      -5.11850775       4.21121952
C        4.85678634      -4.09245486       4.73746843
C        4.35414504      -2.95069219       4.14054850
C        5.94524720      -4.22999254       5.68845486
O        6.28788427      -5.32164183       6.13103263
N        6.54821247      -3.05102236       6.04991632
C        7.65261104      -2.99779307       6.97489630
C        7.65986189      -1.66189477       7.67101308
C        8.36040273      -0.57292010       7.13125912
C        8.30936590       0.67833605       7.74938726
C        7.55389673       0.85604287       8.90832198
C        6.84897486      -0.21976859       9.44373583
C        6.89357456      -1.47169394       8.83101641
H        2.09478997       0.76499227       1.57391620
H        3.51451398      -0.61664096       2.98763045
H        1.26403838      -4.13042670       1.78391897
H       -0.15221298      -2.70835482       0.36814745
H        4.10007725      -6.18015888       4.42273444
H        4.64103971      -1.91719626       4.23760761
H        6.27987920      -2.19154328       5.59835691
H        8.57687282      -3.14306438       6.40427273
H        7.58732307      -3.81599176       7.70089266
H        8.94780847      -0.69187731       6.22270686
H        8.85700986       1.51728375       7.32641297
H        7.51868918       1.83306257       9.38291217
H        6.32742527      -2.30273597       9.24725727
C        6.06018652      -0.03578311      10.63435008
C        5.39957628       0.11830473      11.63148951
Br       4.33142540       0.36745173      13.24377965
