170
Properties=species:S:1:pos:R:3 pbc="F F F"
C        1.79136546       1.79136546      -1.79136546
C        3.16013160       1.55047255      -1.86352513
C        3.96344360       2.35406425      -2.67963809
C        3.40987471       3.40182937      -3.43299278
C        2.02807299       3.63105980      -3.33823852
C        1.22131738       2.83016154      -2.52199744
C        4.23673495       4.22003081      -4.30979730
C        4.01697192       5.23469080      -5.21426912
N        5.19696789       5.61321894      -5.80615341
C        6.10286798       4.85805067      -5.21629072
S        7.80549327       4.93108315      -5.55429578
C        7.86899014       6.32089433      -6.71365844
C        7.49415050       7.62965750      -6.02958857
O        8.18986246       8.10340012      -5.13470532
N        6.34422564       8.20042061      -6.54390979
C        5.70027118       9.38479294      -6.12821333
C        6.14005382      10.19943338      -5.08490464
C        5.41480318      11.34566918      -4.73473046
C        4.25516236      11.68285627      -5.43253993
C        3.80661186      10.88659952      -6.47974474
C        4.53013017       9.74607704      -6.81179948
F        4.09226225       8.97535822      -7.82113840
O        5.58483699       3.97706049      -4.30805970
H        3.61354892       0.74198328      -1.29617579
H        5.03110858       2.14500908      -2.72500291
H        1.55582284       4.43353944      -3.89953284
H        0.15323321       3.02393336      -2.46821194
H        3.07818439       5.70179621      -5.48068939
H        7.23389229       6.11599881      -7.58134259
H        8.89259516       6.42500362      -7.08747321
H        5.82360639       7.66018412      -7.23071766
H        7.03419550       9.96610634      -4.51499570
H        5.76664685      11.96313249      -3.91112943
H        2.91037455      11.13216486      -7.03829869
C        3.51538541      12.86216570      -5.06435609
C        2.89582222      13.84983734      -4.75600212
Br       1.89404094      15.44681886      -4.25741984
C       -1.79136546      -1.79136546      -1.79136546
C       -1.27943591      -2.32386748      -2.97082588
C       -2.08685096      -3.13897614      -3.77131886
C       -3.40936266      -3.43311811      -3.40221609
C       -3.90665840      -2.87841271      -2.21230021
C       -3.10248130      -2.06154047      -1.40945458
C       -4.24319790      -4.30821535      -4.21514981
C       -5.50471454      -4.85011082      -4.11110648
N       -5.76555173      -5.66697979      -5.18380872
C       -4.68332235      -5.56375627      -5.93013074
S       -4.46636002      -6.37162336      -7.45288882
C       -6.08775504      -7.14965559      -7.66613228
C       -7.17991575      -6.10650456      -7.86697627
O       -7.19234586      -5.37886982      -8.85675221
N       -8.12395041      -6.10828233      -6.85632330
C       -9.24248110      -5.26117819      -6.70961816
C       -9.58422326      -4.24186710      -7.59830148
C      -10.70553212      -3.43970617      -7.34996453
C      -11.49046044      -3.66153882      -6.21855929
C      -11.16890908      -4.67765776      -5.32638929
C      -10.04784552      -5.46121518      -5.57894599
F       -9.73616196      -6.43966766      -4.71292926
O       -3.71183984      -4.76651767      -5.39159968
H       -0.25717972      -2.11772226      -3.27680602
H       -1.66465718      -3.54901722      -4.68744617
H       -4.92579941      -3.07465567      -1.88844005
H       -3.50808154      -1.64703774      -0.49025922
H       -6.23038816      -4.70911698      -3.32116485
H       -6.30249800      -7.80932218      -6.81941350
H       -6.06432755      -7.77975500      -8.56098944
H       -7.94772468      -6.71079218      -6.05599131
H       -8.99413772      -4.03525599      -8.48590384
H      -10.95050706      -2.64226365      -8.04813806
H      -11.76739894      -4.87034378      -4.44309537
C      -12.64029830      -2.83082947      -5.97077942
C      -13.60328752      -2.13511040      -5.76326377
Br     -15.16035962      -1.01019149      -5.42772853
C       -1.79136546       1.79136546       1.79136546
C       -1.79476546       3.17095665       1.60840717
C       -2.61086677       3.97482298       2.41145620
C       -3.43259356       3.41123792       3.40086538
C       -3.40667765       2.01813021       3.57256345
C       -2.59071342       1.21070701       2.77205592
C       -4.30892138       4.24067385       4.21696782
C       -5.26588019       4.01835398       5.18169767
N       -5.82342037       5.20628229       5.58663758
C       -5.16289799       6.11637631       4.89793507
S       -5.43138938       7.82766273       5.03182009
C       -6.64735649       7.88345626       6.37273015
C       -6.03833039       7.42363596       7.69143022
O       -5.13661479       8.05839892       8.23295419
N       -6.62563199       6.27444395       8.18848010
C       -6.29037153       5.56315186       9.35975406
C       -5.26642558       5.92146346      10.23650279
C       -4.99832078       5.13354087      11.36334118
C       -5.75884702       3.99265896      11.61905258
C       -6.78786620       3.62498969      10.76010024
C       -7.03821163       4.41013983       9.63965522
F       -8.03011306       4.05037676       8.80826905
O       -4.23934608       5.59645933       4.03415178
H       -1.17351940       3.63267105       0.84551755
H       -2.60168255       5.05134460       2.24809342
H       -4.02241186       1.53760505       4.32887822
H       -2.59083455       0.13404183       2.92050212
H       -5.59221937       3.07332885       5.59512177
H       -7.53124764       7.29660449       6.10338156
H       -6.98172270       8.91726437       6.50608492
H       -7.30930625       5.80805837       7.59714356
H       -4.64939783       6.79860268      10.06729704
H       -4.18867368       5.42214673      12.03008836
H       -7.39419030       2.74473824      10.94190955
C       -5.47484436       3.18804005      12.77902279
C       -5.23699213       2.51417171      13.75049785
Br      -4.85240519       1.42458360      15.32129084
C        1.79136546      -1.79136546       1.79136546
C        1.70634259      -1.69097878       3.17680791
C        2.50858958      -2.50696534       3.98159103
C        3.39950721      -3.43176228       3.41342737
C        3.47385207      -3.50983420       2.01368504
C        2.67387482      -2.69439762       1.20520392
C        4.21258336      -4.30693081       4.24704888
C        5.09409997      -5.34211058       4.02972129
N        5.54421470      -5.84736721       5.22475832
C        4.96642255      -5.08140903       6.12937779
S        5.20269916      -5.24537707       7.84279598
C        6.46119661      -6.54657117       7.89577513
C        7.78142309      -6.06368419       7.30828929
O        8.42458196      -5.16256355       7.84082238
N        8.15641570      -6.75899381       6.17314653
C        9.29413584      -6.55475957       5.36438205
C       10.25950684      -5.57383156       5.59105344
C       11.34317070      -5.43835264       4.71367949
C       11.46712798      -6.28850895       3.61492162
C       10.51847615      -7.27635807       3.37812190
C        9.44214999      -7.39479405       4.25106264
F        8.52393806      -8.34712222       4.01769859
O        4.13082951      -4.13548742       5.60364026
H        1.02049752      -0.98841342       3.64279705
H        2.42252350      -2.41539688       5.06320019
H        4.15218925      -4.20768867       1.52901721
H        2.74568076      -2.77590264       0.12379510
H        5.41744565      -5.75833009       3.08489425
H        6.09349605      -7.44599199       7.39174564
H        6.64482266      -6.82069108       8.93955825
H        7.48991399      -7.42848728       5.79610691
H       10.19359763      -4.88997674       6.43172318
H       12.08048908      -4.66050258       4.89991712
H       10.59741556      -7.95065314       2.53276938
C       12.58363851      -6.14064293       2.71762575
C       13.51871608      -6.01680515       1.96614046
Br      15.03065742      -5.81656992       0.75105230
C       -0.00445707       0.01189536      -1.78238275
H       -0.66409135       0.67374010      -2.43557963
H        0.65740317      -0.63156657      -2.45157240
C       -0.90989263      -0.90692880      -0.91072765
C        0.90977584       0.90977584      -0.90977584
C       -0.00465871       1.77757030       0.00794375
H       -0.66225468       2.44313916      -0.64384735
H        0.64322798       2.43503045       0.67728295
C       -1.78241447       0.00034974      -0.00472694
H       -2.45427497      -0.65498947       0.64260836
H       -2.43311707       0.67328779      -0.65473579
C       -0.91132561       0.90220522       0.91563759
C       -0.01476271      -0.02253852       1.78660255
H       -0.67934791      -0.69751639       2.42135241
H        0.63392994       0.61504881       2.47327442
C        0.01484550      -1.77751727      -0.01636693
H        0.67870853      -2.42144646      -0.68295456
H       -0.62264859      -2.45592969       0.64226336
C        1.78714474       0.01002794       0.00389507
H        2.44202412       0.67113390       0.66197326
H        2.45385902      -0.65136977      -0.64189061
C        0.91606151      -0.90478549       0.90901405
