170
Properties=species:S:1:pos:R:3 pbc="F F F"
O        9.67269410       4.48583843      -6.84303518
C        8.50084663       4.85234579      -6.88144883
C        8.09782698       6.22038510      -6.35254030
S        7.58015849       6.10843921      -4.61665997
C        6.02404259       5.35416756      -4.78548897
N        5.31726292       5.37229353      -5.90202365
C        4.17416507       4.68336050      -5.57650637
C        4.25258419       4.21112916      -4.28673110
O        5.44012310       4.65205620      -3.76897883
C        3.41063096       3.40284103      -3.42119502
C        2.02673208       3.32925749      -3.63895798
C        1.21828780       2.52923512      -2.82476601
C        1.79145276       1.79145276      -1.79145276
C        3.16241998       1.85127436      -1.56020040
C        3.96638695       2.65754499      -2.37043313
N        7.43235811       4.11923660      -7.37071581
C        7.46060759       2.82444392      -7.92386012
C        8.63339003       2.14248720      -8.25330241
C        8.57672640       0.85694803      -8.80387437
C        7.34401836       0.24822746      -9.02279597
C        6.16585791       0.91527177      -8.70057790
C        6.22607340       2.20257946      -8.15846240
H        7.32141371       6.66949553      -6.98030966
H        8.97191890       6.87761784      -6.41377175
H        3.37489432       4.53791514      -6.29141302
H        1.55663328       3.90071555      -4.43633545
H        0.14648204       2.48981701      -3.00565734
H        3.61698845       1.27555130      -0.75923282
H        5.03874005       2.68676969      -2.18152722
H        6.50845527       4.51817132      -7.20938090
H        9.61215775       2.58698507      -8.10441362
H        9.50229757       0.34615005      -9.05677320
H        5.19993520       0.44586756      -8.86507084
H        5.29494884       2.70647616      -7.91121224
C        7.28680385      -1.07577952      -9.58611828
C        7.23888670      -2.18463536     -10.05790071
Br       7.16140872      -3.97756148     -10.82073300
O       -6.02969465      -9.94308722      -5.02878583
C       -6.29989635      -8.75437264      -5.18037226
C       -6.07648525      -8.07262416      -6.52164297
S       -4.44084594      -7.28809389      -6.57631785
C       -4.70265799      -5.90993630      -5.55110482
N       -5.89654100      -5.40908035      -5.28595876
C       -5.62774503      -4.33956588      -4.46672104
C       -4.27878665      -4.26443382      -4.20722399
O       -3.67697874      -5.26934669      -4.91483270
C       -3.41959665      -3.41356557      -3.40150480
C       -3.82026775      -2.11272830      -3.06195151
C       -3.00765949      -1.30207971      -2.26254973
C       -1.79145276      -1.79145276      -1.79145276
C       -1.37716473      -3.07938376      -2.11734624
C       -2.18763127      -3.88408561      -2.92264818
N       -6.80678046      -7.90305826      -4.21247180
C       -7.12074731      -8.21306812      -2.87509621
C       -7.15506515      -9.51129988      -2.36281462
C       -7.48043792      -9.73677359      -1.02033729
C       -7.76893773      -8.66120597      -0.18489809
C       -7.73989613      -7.36113208      -0.68067937
C       -7.42255066      -7.14030638      -2.02425820
H       -6.87771363      -7.35788131      -6.73562395
H       -6.12138007      -8.83947037      -7.30245806
H       -6.41573166      -3.70377771      -4.08471311
H       -4.76318131      -1.70768673      -3.42281623
H       -3.33289783      -0.29414038      -2.01491818
H       -0.43228014      -3.46929677      -1.75019565
H       -1.85276287      -4.89267094      -3.16160315
H       -6.85183659      -6.91717664      -4.46699426
H       -6.94367020     -10.37519362      -2.98469262
H       -7.50528062     -10.75615761      -0.64378259
H       -7.96038141      -6.51603756      -0.03445462
H       -7.40284160      -6.11747678      -2.39231884
C       -8.10025059      -8.89390647       1.19701445
C       -8.37772511      -9.08879314       2.35436620
Br      -8.82637794      -9.40390840       4.22570610
O       -5.75956711       9.98521091       5.25678968
C       -6.10221563       8.80750953       5.32491608
C       -5.99361484       8.04218757       6.63494997
S       -4.40886290       7.16315746       6.73323732
C       -4.68581981       5.86005955       5.61781976
N       -5.88793968       5.44377973       5.25986069
C       -5.63101739       4.40667825       4.39633631
C       -4.27545434       4.26836675       4.20662336
O       -3.66159463       5.19710754       5.00245596
C       -3.41888474       3.41456738       3.40121490
C       -3.86946406       2.15927493       2.96620857
C       -3.05750819       1.34790270       2.16687804
C       -1.79145276       1.79145276       1.79145276
C       -1.32721544       3.03383904       2.21284025
C       -2.13769840       3.83883954       3.01782712
N       -6.59814709       8.04057334       4.28359008
C       -6.81744034       8.44031270       2.95115859
C       -6.75168158       9.76428292       2.51321514
C       -6.98664471      10.08068345       1.17022063
C       -7.28467084       9.07045104       0.25991991
C       -7.35484127       7.74584408       0.68102222
C       -7.12769107       7.43447843       2.02494574
H       -6.84346153       7.36409729       6.76366008
H       -6.04157325       8.76679045       7.45494479
H       -6.42912781       3.83891445       3.93618022
H       -4.85216636       1.79007733       3.25144059
H       -3.42225985       0.37526236       1.84443417
H       -0.34300901       3.38818373       1.92057983
H       -1.76281317       4.81204190       3.33218190
H       -6.71125011       7.04654002       4.47821735
H       -6.52974750      10.57953766       3.19427127
H       -6.93438930      11.11876073       0.85207080
H       -7.58341685       6.95117481      -0.02371806
H       -7.18476317       6.39372284       2.33415123
C       -7.52289683       9.39653955      -1.12229377
C       -7.72241109       9.66963869      -2.27989773
Br      -8.04500877      10.11121689      -4.15164542
O        9.99569529      -5.37575550       5.63011692
C        8.82665258      -5.40142813       6.00656054
C        8.02311164      -6.69194559       5.95569516
S        7.09760109      -6.80874682       4.39890976
C        5.83371999      -5.65005695       4.67992218
N        5.46126396      -5.24787810       5.88243805
C        4.44131806      -4.36292525       5.62978864
C        4.27025096      -4.20647723       4.27371626
O        5.15933096      -5.04451782       3.65730936
C        3.41505300      -3.40110729       3.41850673
C        2.18524073      -2.91890949       3.89079734
C        1.37352343      -2.11958565       3.07917984
C        1.79145276      -1.79145276       1.79145276
C        3.00835722      -2.26005280       1.30548472
C        3.81351193      -3.06489003       2.11596310
N        8.10264471      -4.32584182       6.49382399
C        8.54460090      -2.99966351       6.66464722
C        9.87766480      -2.60100406       6.55051078
C       10.23707410      -1.26150445       6.73897024
C        9.26082646      -0.31541751       7.03879781
C        7.92770982      -0.69711045       7.15688732
C        7.57352542      -2.03746639       6.97612344
H        7.36587641      -6.77833138       6.82701110
H        8.72612269      -7.53033665       6.00684915
H        3.90894633      -3.86540440       6.42987174
H        1.83611726      -3.16673901       4.89082801
H        0.42066566      -1.76013854       3.46115219
H        3.34278879      -2.00482451       0.30415927
H        4.76686773      -3.41654662       1.72362261
H        7.10723482      -4.48933804       6.63943462
H       10.66747687      -3.31047369       6.32560588
H       11.28157331      -0.97415546       6.64949206
H        7.15930027       0.03562879       7.38720212
H        6.52672926      -2.31567125       7.07023672
C        9.63107840       1.06308840       7.22915261
C        9.94116439       2.21758710       7.38857476
Br      10.44254722       4.08431386       7.64634689
C       -0.00445707       0.01189536      -1.78238275
H       -0.66409135       0.67374010      -2.43557963
H        0.65740317      -0.63156657      -2.45157240
C       -0.90989263      -0.90692880      -0.91072765
C        0.90977584       0.90977584      -0.90977584
C       -0.00465871       1.77757030       0.00794375
H       -0.66225468       2.44313916      -0.64384735
H        0.64322798       2.43503045       0.67728295
C       -1.78241447       0.00034974      -0.00472694
H       -2.45427497      -0.65498947       0.64260836
H       -2.43311707       0.67328779      -0.65473579
C       -0.91132561       0.90220522       0.91563759
C       -0.01476271      -0.02253852       1.78660255
H       -0.67934791      -0.69751639       2.42135241
H        0.63392994       0.61504881       2.47327442
C        0.01484550      -1.77751727      -0.01636693
H        0.67870853      -2.42144646      -0.68295456
H       -0.62264859      -2.45592969       0.64226336
C        1.78714474       0.01002794       0.00389507
H        2.44202412       0.67113390       0.66197326
H        2.45385902      -0.65136977      -0.64189061
C        0.91606151      -0.90478549       0.90901405
