153
Properties=species:S:1:pos:R:3 pbc="F F F"
C        0.00000000       0.00000000       0.00000000
O        4.93460337       5.32328823       0.01395216
C        5.53515146       6.05721315      -0.76602063
C        6.63876943       5.49266446      -1.65434058
S        6.32489553       5.79917263      -3.41130524
C        4.94768275       4.77112662      -3.68704075
N        4.32312205       4.71480096      -4.84510349
C        3.28876195       3.83989172      -4.62206380
C        3.32044468       3.38463341      -3.32323761
O        4.40694017       3.96423632      -2.72586106
C        2.49668110       2.51837660      -2.49543269
C        3.00393116       1.94256922      -1.32018709
C        2.20332294       1.12366597      -0.51795412
C        0.88166245       0.88166245      -0.88166245
C        0.35687276       1.44462362      -2.04221645
C        1.16406673       2.25571416      -2.84776407
N        5.37508848       7.42742442      -0.89480352
C        4.46656389       8.25654579      -0.20407927
C        3.54773018       7.79226436       0.73493514
C        2.67045534       8.67986636       1.36534793
C        2.70762437      10.04324342       1.06723154
Br       1.46792392      11.17196947       1.95916280
C        3.63014860      10.53873338       0.13653743
C        3.70703809      11.99701026      -0.22043381
C        4.50022531       9.62842451      -0.49523068
H        6.74599620       4.41861150      -1.46933553
H        7.58226233       5.97065953      -1.37249980
H        2.57971772       3.59349856      -5.40058030
H        4.03105315       2.13203557      -1.01267659
H        2.61965370       0.69127367       0.38818313
H       -0.67712238       1.26701801      -2.32563337
H        0.72780380       2.69600698      -3.74141658
H        5.95379882       7.88353855      -1.59127832
H        3.47500704       6.74155996       0.99732025
H        1.95700705       8.28938073       2.08762768
H        4.54255337      12.20052619      -0.89932931
H        3.86735475      12.60617247       0.67466464
H        2.78798090      12.31427744      -0.72346897
H        5.21276876      10.00686734      -1.22505775
O       -3.95857894      -6.08076441      -0.20459608
C       -4.57159929      -6.78285509      -1.00393086
C       -5.89460997      -6.30119257      -1.58997194
S       -5.86749435      -6.26751503      -3.40036401
C       -4.74186445      -4.97225880      -3.69172688
N       -4.35883755      -4.62208052      -4.90210843
C       -3.44981657      -3.61636940      -4.68453149
C       -3.31098668      -3.38229742      -3.33503160
O       -4.16468772      -4.23858960      -2.69376023
C       -2.49307868      -2.51792774      -2.49948397
C       -2.85732355      -2.23566807      -1.17369585
C       -2.05925772      -1.41755939      -0.36812593
C       -0.88166245      -0.88166245      -0.88166245
C       -0.49967556      -1.15049427      -2.19354299
C       -1.30595940      -1.96172520      -2.99986037
N       -4.22718019      -8.06283693      -1.40729930
C       -3.08892899      -8.80662454      -1.03163543
C       -2.09572496      -8.33201032      -0.17732411
C       -0.98986914      -9.12895557       0.13385094
C       -0.86923142     -10.41248523      -0.40191959
Br       0.67416944     -11.41699005       0.06209002
C       -1.85962738     -10.91935905      -1.25335812
C       -1.77367579     -12.29318008      -1.85762629
C       -2.96227773     -10.09883729      -1.56276549
H       -6.13133347      -5.30755417      -1.19505559
H       -6.68371843      -6.98339461      -1.25830861
H       -2.94411863      -3.12510419      -5.50457376
H       -3.76767013      -2.65735354      -0.75074164
H       -2.36278368      -1.21582384       0.65586327
H        0.42364163      -0.74279044      -2.59638019
H       -0.97955412      -2.16937925      -4.01629399
H       -4.84673146      -8.50428339      -2.07760083
H       -2.13988483      -7.33975745       0.26039552
H       -0.22459918      -8.73027263       0.79611171
H       -2.67842309     -12.53976108      -2.42422470
H       -1.66896110     -13.05305146      -1.07685002
H       -0.92562446     -12.35282414      -2.54727872
H       -3.72993755     -10.48449401      -2.23026229
O       -5.78034031       0.07382482       4.38977430
C       -6.49626819       0.86577260       4.99634445
C       -5.96789031       1.58471166       6.23317250
S       -6.07556657       3.38542799       6.07437883
C       -4.89022373       3.68107722       4.83454916
N       -4.66240870       4.88031722       4.34030058
C       -3.71040840       4.66582546       3.37448361
C       -3.38375297       3.32980823       3.31475451
O       -4.12505669       2.69660506       4.27537580
C       -2.51828317       2.49767472       2.49453250
C       -2.10961689       1.22736838       2.92970220
C       -1.29104175       0.42327067       2.13063062
C       -0.88166245       0.88166245       0.88166245
C       -1.27717196       2.13773207       0.42880880
C       -2.08837815       2.94369611       1.23547071
N       -7.82479257       1.14905236       4.72347148
C       -8.61683863       0.63482621       3.67552412
C       -8.15004331      -0.25727224       2.71228831
C       -8.99760060      -0.70866888       1.69604206
C      -10.32386090      -0.27676084       1.63653618
Br     -11.39731267      -0.92861565       0.21203356
C      -10.82271724       0.60996181       2.59966550
C      -12.24156229       1.10621136       2.57670851
C       -9.95180648       1.06103705       3.61103696
H       -4.93246662       1.28111370       6.42036292
H       -6.56448712       1.26686738       7.09406716
H       -3.32102248       5.47751852       2.77525558
H       -2.43145965       0.84665867       3.89764700
H       -0.99000007      -0.55732092       2.49006509
H       -0.96861244       2.49644020      -0.54952364
H       -2.39635785       3.91459175       0.85427776
H       -8.27112535       1.83178801       5.32570233
H       -7.12645208      -0.61834563       2.71114030
H       -8.60481602      -1.39766772       0.95161181
H      -12.46577070       1.72166080       3.45497737
H      -12.94466661       0.26744752       2.58674844
H      -12.41445580       1.72257744       1.68869407
H      -10.33186884       1.75635672       4.35646829
O        5.90388906      -0.11893060       4.22111977
C        6.61436471      -0.91397375       4.83004677
C        6.10247556      -1.58081818       6.10248074
S        6.15328567      -3.38777864       5.99430909
C        4.92351518      -3.68372754       4.79860740
N        4.64652297      -4.88943965       4.34706388
C        3.67279484      -4.67471221       3.40321041
C        3.38325846      -3.33184897       3.31320828
O        4.17081814      -2.69349027       4.23272914
C        2.51817190      -2.49837894       2.49393955
C        2.15952644      -1.20442469       2.90273634
C        1.34111336      -0.39975079       2.10407888
C        0.88166245      -0.88166245       0.88166245
C        1.22704760      -2.16151176       0.45515346
C        2.03827005      -2.96761166       1.26166325
N        7.92543546      -1.24443951       4.52744144
C        8.70047079      -0.78452038       3.44219779
C        8.23119190       0.09286299       2.46673048
C        9.06081824       0.48927072       1.41342626
C       10.37168176       0.01653910       1.32849358
Br      11.42065045       0.59470870      -0.14521116
C       10.87314627      -0.85643046       2.30276782
C       12.27574298      -1.39514754       2.25359164
C       10.02005076      -1.25196286       3.35186687
H        5.08229009      -1.24125224       6.31040090
H        6.73336963      -1.25612213       6.93592990
H        3.24244767      -5.49143627       2.83991264
H        2.52090636      -0.80564529       3.84921367
H        1.07937184       0.59934576       2.44271816
H        0.87926622      -2.53900413      -0.50274136
H        2.30657624      -3.95785602       0.90079510
H        8.36957560      -1.92246561       5.13657448
H        7.21888414       0.48405904       2.48442165
H        8.66612872       1.16785072       0.66048210
H       12.50811096      -1.99135547       3.14294244
H       13.00278395      -0.57774331       2.21833532
H       12.40424113      -2.04179573       1.37969044
H       10.40187612      -1.93645063       4.10636710
