162
Properties=species:S:1:pos:R:3 pbc="F F F"
O        7.82154305       4.64475402       3.04910433
C        7.85388859       5.28772620       2.00274017
C        7.15118783       6.63393762       1.88979166
S        5.36133665       6.41157172       1.75151589
C        5.25993730       5.62819500       0.20496352
N        6.16009304       5.76359813      -0.75163781
C        5.66906598       4.98385576      -1.77303681
C        4.48957198       4.38365086      -1.39210271
O        4.22064843       4.80330625      -0.11798454
C        3.52888817       3.47670065      -1.99891211
C        3.41506948       3.38467280      -3.39422573
C        2.49491463       2.50927238      -3.97975268
C        1.68333718       1.70932263      -3.17766140
C        1.79207891       1.79207891      -1.79207891
C        2.70257434       2.66940912      -1.20217010
N        8.50150581       4.91095955       0.84071130
C        9.27583453       3.75217941       0.61976315
C        9.54602219       2.78656851       1.58933563
C       10.32180326       1.66426089       1.27040646
C       10.83726023       1.51082142      -0.01640114
Br      11.88047338      -0.00714400      -0.43599337
C       10.58616404       2.46807048      -0.99285462
C        9.80761002       3.57477520      -0.66560330
F        9.56756749       4.49611594      -1.61345491
H        7.53802891       7.22154411       1.05044955
H        7.37082730       7.20246353       2.80040963
H        6.19360391       4.88716420      -2.71374150
H        4.03055300       4.00311723      -4.04419777
H        2.41049863       2.45363861      -5.06240089
H        0.97243633       1.02887418      -3.63912677
H        2.77581497       2.71791190      -0.11756085
H        8.32685133       5.47591748       0.01002913
H        9.16447398       2.86897249       2.60202016
H       10.51409050       0.91783280       2.03780797
H       10.98245829       2.37156598      -1.99848321
O       -5.04037861       3.15311169      -7.52992583
C       -5.64602362       2.08530782      -7.57815882
C       -6.96011287       1.89693730      -6.83215822
S       -6.66622331       1.70271697      -5.05788614
C       -5.82443782       0.18385287      -5.04258382
N       -5.95883848      -0.74411148      -5.97237902
C       -5.12503687      -1.75269172      -5.54822995
C       -4.49530359      -1.39231706      -4.37770491
O       -4.95021935      -0.14526834      -4.04645152
C       -3.53185066      -1.99902290      -3.47362737
C       -3.38546411      -3.39311857      -3.41538532
C       -2.45579829      -3.97828985      -2.54985156
C       -1.65549138      -3.17662005      -1.73820978
C       -1.79207891      -1.79207891      -1.79207891
C       -2.72346893      -1.20295149      -2.64773314
N       -5.25211708       0.96222888      -8.28186585
C       -4.11586142       0.81273095      -9.10512032
C       -3.19654615       1.82678734      -9.37349626
C       -2.09324079       1.57813048     -10.20054737
C       -1.91293293       0.31734243     -10.76889228
Br      -0.42086625      -0.00743780     -11.88101870
C       -2.82436291      -0.70258611     -10.52014012
C       -3.91228241      -0.44513541      -9.69057070
F       -4.78929491      -1.43476158      -9.45308185
H       -7.53115885       1.05070647      -7.22867109
H       -7.56885879       2.79300384      -6.99702624
H       -5.01419950      -2.66963525      -6.11067485
H       -4.00266295      -4.04315476      -4.03205028
H       -2.35811099      -5.06044175      -2.50798539
H       -0.93279628      -3.63764435      -1.06999666
H       -2.81368806      -0.11897720      -2.67862246
H       -5.77988675       0.10527811      -8.11813105
H       -3.30104666       2.82129508      -8.95167473
H       -1.38262568       2.37929787     -10.39078752
H       -2.70658559      -1.68898993     -10.95693196
O        3.05100859       7.81692049       4.65128085
C        2.00427802       7.84950854       5.29364409
C        1.89009909       7.14606775       6.63936513
S        1.75088249       5.35643376       6.41584121
C        0.20474035       5.25643367       5.63147546
N       -0.75140160       6.15708240       5.76684498
C       -1.77262663       5.66713711       4.98619481
C       -1.39204021       4.48777503       4.38551032
O       -0.11833600       4.21783434       4.80576888
C       -1.99888131       3.52800050       3.47761912
C       -3.39420748       3.41507520       3.38468532
C       -3.97976077       2.49579790       2.50838102
C       -3.17767647       1.68421916       1.70842558
C       -1.79207891       1.79207891       1.79207891
C       -1.20215072       2.70169301       2.67030983
N        0.84286465       8.49804970       4.91656900
C        0.62307743       9.27320647       3.75812176
C        1.59339177       9.54339130       2.79325553
C        1.27560255      10.32003740       1.67122285
C       -0.01080299      10.83635922       1.51732057
Br      -0.42885704      11.88073527      -0.00026956
C       -0.98798184      10.58527500       2.47383230
C       -0.66186276       9.80586034       3.58026542
F       -1.61041154       9.56583416       4.50089264
H        1.05063655       7.53306011       7.22669991
H        2.80050710       7.36481888       7.20856941
H       -2.71295803       6.19229794       4.88925364
H       -4.04418128       4.03057766       4.00310905
H       -5.06242585       2.41206563       2.45204665
H       -3.63915971       0.97400424       1.02727334
H       -0.11752703       2.77425301       2.71950768
H        0.01173858       8.32355510       5.48092316
H        2.60579740       9.16118549       2.87603822
H        2.04356757      10.51231169       0.92537120
H       -1.99331420      10.98223109       2.37696219
O       -1.24687442      -1.23133530       9.43273187
C       -0.14759733      -1.77409051       9.51238143
C        1.10338489      -0.96486909       9.82707981
S        1.62806901      -0.01064678       8.38267669
C        2.08313773      -1.29453722       7.30549382
N        2.48097291      -2.48824198       7.70611408
C        2.73776841      -3.15665664       6.53153350
C        2.46770946      -2.34645451       5.45116159
O        2.05106074      -1.14206500       5.94881348
C        2.53029403      -2.47026468       4.00394221
C        3.38058876      -3.41050118       3.40287806
C        3.43852701      -3.53435239       2.01106030
C        2.64109062      -2.72558630       1.20364430
C        1.79207891      -1.79207891       1.79207891
C        1.73594928      -1.65843275       3.17977153
N        0.10303771      -3.12350139       9.34521495
C       -0.82999061      -4.15034967       9.08789173
C       -2.20830636      -3.95889744       8.99266398
C       -3.05456718      -5.04345660       8.72676827
C       -2.52456079      -6.32339664       8.56564693
Br      -3.67455104      -7.77821634       8.20565746
C       -1.15413665      -6.53446632       8.66675947
C       -0.32316014      -5.44749058       8.92365809
F        1.00036053      -5.65731508       9.01946273
H        1.91589977      -1.60328628      10.18993742
H        0.85778562      -0.27385131      10.64124426
H        3.08707372      -4.18007397       6.52736192
H        4.01983740      -4.04925570       4.00877489
H        4.10808340      -4.26111344       1.55734129
H        2.68867005      -2.82903671       0.12273052
H        1.06385474      -0.92563375       3.62179923
H        1.08056494      -3.41033518       9.30183957
H       -2.66037732      -2.97950079       9.11230283
H       -4.12578085      -4.87244794       8.64744822
H       -0.72131270      -7.52285230       8.55096788
C       -0.00445707       0.01189536      -1.78238275
H       -0.66409135       0.67374010      -2.43557963
H        0.65740317      -0.63156657      -2.45157240
C       -0.90989263      -0.90692880      -0.91072765
C        0.90977584       0.90977584      -0.90977584
C       -0.00465871       1.77757030       0.00794375
H       -0.66225468       2.44313916      -0.64384735
H        0.64322798       2.43503045       0.67728295
C       -1.78241447       0.00034974      -0.00472694
H       -2.45427497      -0.65498947       0.64260836
H       -2.43311707       0.67328779      -0.65473579
C       -0.91132561       0.90220522       0.91563759
C       -0.01476271      -0.02253852       1.78660255
H       -0.67934791      -0.69751639       2.42135241
H        0.63392994       0.61504881       2.47327442
C        0.01484550      -1.77751727      -0.01636693
H        0.67870853      -2.42144646      -0.68295456
H       -0.62264859      -2.45592969       0.64226336
C        1.78714474       0.01002794       0.00389507
H        2.44202412       0.67113390       0.66197326
H        2.45385902      -0.65136977      -0.64189061
C        0.91606151      -0.90478549       0.90901405
