141
Properties=species:S:1:pos:R:3 pbc="F F F"
C        0.00000000       0.00000000       0.00000000
O        6.91163903       3.73485000       3.95900836
C        6.94398456       4.37782218       2.91264420
C        6.24128381       5.72403360       2.79969568
S        4.45143262       5.50166769       2.66141992
C        4.35003327       4.71829098       1.11486755
N        5.25018902       4.85369410       0.15826621
C        4.75916195       4.07395174      -0.86313278
C        3.57966796       3.47374684      -0.48219869
O        3.31074440       3.89340222       0.79191948
C        2.61898415       2.56679662      -1.08900808
C        2.50516545       2.47476877      -2.48432170
C        1.58501061       1.59936836      -3.06984866
C        0.77343315       0.79941861      -2.26775738
C        0.88217489       0.88217489      -0.88217489
C        1.79267032       1.75950510      -0.29226607
N        7.59160178       4.00105552       1.75061533
C        8.36593050       2.84227539       1.52966717
C        8.63611816       1.87666449       2.49923966
C        9.41189924       0.75435687       2.18031049
C        9.92735620       0.60091739       0.89350288
Br      10.97056936      -0.91704802       0.47391065
C        9.67626002       1.55816646      -0.08295060
C        8.89770599       2.66487118       0.24430072
F        8.65766347       3.58621191      -0.70355088
H        6.62812489       6.31164008       1.96035357
H        6.46092327       6.29255951       3.71031366
H        5.28369988       3.97726017      -1.80383748
H        3.12064897       3.09321320      -3.13429374
H        1.50059460       1.54373458      -4.15249687
H        0.06253231       0.11897016      -2.72922275
H        1.86591095       1.80800788       0.79234317
H        7.41694731       4.56601346       0.91993316
H        8.25456996       1.95906846       3.51192419
H        9.60418647       0.00792877       2.94771200
H       10.07255427       1.46166196      -1.08857918
O       -3.26459769       3.80571102      -7.22859401
C       -3.95085661       2.78683303      -7.24513896
C       -5.32901902       2.76135014      -6.59795284
S       -5.18821346       2.69238928      -4.79585622
C       -4.47826737       1.12025766      -4.59544698
N       -4.61755050       0.13167430      -5.45974071
C       -3.90457920      -0.89905375      -4.89261352
C       -3.33828230      -0.49234493      -3.70498624
O       -3.71264567       0.80881274      -3.50839421
C       -2.49988450      -1.09401424      -2.68089011
C       -2.47391184      -2.48563540      -2.50470869
C       -1.66437322      -3.06651279      -1.52334163
C       -0.86481753      -2.26391619      -0.71187542
C       -0.88217489      -0.88217489      -0.88217489
C       -1.69385311      -0.29641969      -1.85416869
N       -3.59850540       1.58277214      -7.82630872
C       -2.41904764       1.27969981      -8.53919090
C       -1.40141411       2.19514087      -8.80726975
C       -0.26259205       1.79573453      -9.51908810
C       -0.14416672       0.48228274      -9.97288672
Br       1.39639640      -0.04591425     -10.93009284
C       -1.15295417      -0.44121362      -9.72320928
C       -2.27595392      -0.03403365      -9.00828889
F       -3.24718270      -0.93097147      -8.76927210
H       -5.93607405       1.93126437      -6.97460171
H       -5.84740090       3.68452526      -6.88029348
H       -3.82725808      -1.86505660      -5.37248286
H       -3.09386131      -3.13541972      -3.11887489
H       -1.65980024      -4.14580492      -1.39122089
H       -0.23565901      -2.72194565       0.04687945
H       -1.69169120       0.78502013      -1.97490458
H       -4.20613238       0.78497188      -7.64186710
H       -1.45532218       3.22612908      -8.47252114
H        0.52413932       2.52198462      -9.71052719
H       -1.08404383      -1.46639631     -10.07235527
O        4.15861094       6.22326738       4.62282423
C        3.06640923       6.29478925       5.18078253
C        2.78168671       5.49951834       6.44779009
S        2.52105742       3.75178813       6.06094969
C        1.04501331       3.84742798       5.15104203
N        0.15503321       4.81338875       5.28726137
C       -0.83085626       4.47633861       4.38905160
C       -0.49454252       3.31985800       3.72121296
O        0.71296064       2.90903346       4.21615432
C       -1.09511664       2.49064212       2.68903010
C       -2.48183408       2.50578160       2.47664025
C       -3.06077752       1.71245694       1.48099316
C       -2.25962733       0.90077479       0.68020702
C       -0.88217489       0.88217489       0.88217489
C       -0.29981658       1.66537404       1.87925087
N        1.99666750       7.06855334       4.77015614
C        1.93928641       7.94894085       3.66888428
C        3.00726948       8.21020085       2.81061162
C        2.84954510       9.09761075       1.73787997
C        1.62602354       9.73314950       1.52764475
Br       1.42390257      10.92636767       0.07714558
C        0.55345217       9.49211032       2.37871891
C        0.72057125       8.60246888       3.43637881
F       -0.31960672       8.37278990       4.25502965
H        1.92810125       5.90955487       6.99795777
H        3.65423899       5.59348450       7.10392361
H       -1.71487028       5.08640175       4.26352550
H       -3.13182297       3.12401605       3.09231691
H       -4.13781123       1.72681841       1.33219641
H       -2.71558600       0.28897756      -0.09383834
H        0.77889192       1.64031301       2.02015456
H        1.10891704       6.92204890       5.24989575
H        3.97539056       7.73703863       2.94006617
H        3.69157472       9.28156078       1.07441719
H       -0.40526625       9.98042828       2.23710088
O       -2.13013201      -0.28685313       8.53075956
C       -1.03236393      -0.83291303       8.60861345
C        0.22224472      -0.02674243       8.91663458
S        0.74532225       0.92109369       7.46745184
C        1.19273602      -0.36774540       6.39297528
N        1.58800533      -1.56143279       6.79617878
C        1.83882309      -2.23447411       5.62294928
C        1.56788154      -1.42689928       4.54083266
O        1.15674910      -0.21955998       5.03591807
C        1.62536744      -1.55559354       3.09382787
C        2.47066030      -2.50052473       2.49307089
C        2.52367963      -2.62906570       1.10148230
C        1.72624750      -1.82033201       0.29402963
C        0.88217489      -0.88217489       0.88217489
C        0.83098246      -0.74385829       2.26960074
N       -0.78663992      -2.18366409       8.44501781
C       -1.72381587      -3.20830566       8.19404893
C       -3.10180683      -3.01268974       8.10266008
C       -3.95243073      -4.09535095       7.84302539
C       -3.42709391      -5.37751915       7.68434548
Br      -4.58294739      -6.82975557       7.33280251
C       -2.05703886      -5.59270765       7.78170827
C       -1.22172049      -4.50760938       8.03238756
F        0.10141840      -4.72141765       8.12459021
H        1.03386334      -0.66661624       9.27893181
H       -0.01847366       0.66769936       9.72934214
H        2.18480009      -3.25902798       5.62096947
H        3.10980229      -3.13938716       3.09896647
H        3.18940497      -3.35946032       0.64796076
H        1.76998327      -1.92743289      -0.78669095
H        0.16270059      -0.00745537       2.71141970
H        0.18980825      -2.47380809       8.39941127
H       -3.55031603      -2.03144896       8.22058131
H       -5.02333734      -3.92112373       7.76661686
H       -1.62779305      -6.58286275       7.66772571
