161
Properties=species:S:1:pos:R:3 pbc="F F F"
C        0.00000000       0.00000000       0.00000000
O        2.85975117      10.21596979       1.67089557
C        3.37595301       9.19344305       1.22774132
C        3.67506148       7.99347068       2.10532289
S        2.29398903       6.82950864       2.11047287
C        2.61575233       5.91080671       0.67172149
N        3.40437286       6.30754948      -0.31064503
C        3.34093913       5.27657426      -1.21877063
C        2.52851997       4.26948172      -0.74690628
O        2.05503248       4.68082051       0.46986559
C        2.09584796       2.96119858      -1.21810126
C        2.49154634       2.48970550      -2.47981621
C        2.08608651       1.23108439      -2.93545684
C        1.28007456       0.42482460      -2.13497713
C        0.88205609       0.88205609      -0.88205609
C        1.28288889       2.13785568      -0.42316864
N        3.77571504       9.05133314      -0.08210060
C        3.60304139      10.10258708      -1.06159950
C        4.78235738      11.04719784      -1.18100372
C        5.93774978      10.88946361      -0.39163043
C        7.01301962      11.77618465      -0.48846639
C        6.96003709      12.84006716      -1.38141330
C        5.83407377      13.01281441      -2.18286382
C        4.75520631      12.12480739      -2.08624921
H        3.83066551       8.35870745       3.12622167
H        4.61060279       7.51300395       1.79884346
H        3.88482192       5.31302431      -2.15249450
H        3.12053989       3.09388589      -3.12962437
H        2.40053522       0.88018356      -3.91566263
H        0.96886084      -0.55250026      -2.49445679
H        0.96014016       2.47294096       0.56064526
H        3.94533950       8.10553190      -0.42153665
H        2.69971882      10.66796826      -0.80696690
H        3.44940953       9.59740382      -2.02185711
H        6.01519166      10.07517343       0.32378465
H        7.88741444      11.63733285       0.14259594
H        7.79255713      13.53550811      -1.45104566
H        5.80301361      13.84810288      -2.87812172
C        3.63232446      12.36733060      -2.95453421
C        2.69191091      12.57044378      -3.68172290
Br       1.17134174      12.89886063      -4.85752551
O       -2.54955038     -10.32797448       1.47269946
C       -3.10356767      -9.30838988       1.07030282
C       -3.41019829      -8.13984483       1.98683384
S       -2.06000684      -6.94018729       1.98716933
C       -2.44344024      -5.99347871       0.58208139
N       -3.24732306      -6.38548477      -0.38975953
C       -3.23465168      -5.33007290      -1.27155943
C       -2.43629352      -4.31431567      -0.79429877
O       -1.92023455      -4.74425040       0.39849754
C       -2.05021363      -2.98328166      -1.24165249
C       -2.49128281      -2.49000981      -2.47977544
C       -2.13070094      -1.20972730      -2.91219951
C       -1.32484210      -0.40332476      -2.11170942
C       -0.88205609      -0.88205609      -0.88205609
C       -1.23800089      -2.15948018      -0.44643213
N       -3.54146452      -9.14313977      -0.22454448
C       -3.36772705     -10.16378845      -1.23571247
C       -4.52499732     -11.13594271      -1.34961891
C       -5.66273810     -11.02935137      -0.52675436
C       -6.71693060     -11.94147930      -0.61926076
C       -6.66018053     -12.98015819      -1.54117882
C       -5.55178110     -13.10222072      -2.37575018
C       -4.49403253     -12.18870656      -2.28352381
H       -3.52918518      -8.53533256       3.00136645
H       -4.36563887      -7.67660061       1.71747620
H       -3.80198263      -5.35679940      -2.19155870
H       -3.12146941      -3.09366947      -3.12891127
H       -2.47999494      -0.84208297      -3.87430351
H       -1.04862427       0.59087061      -2.45306371
H       -0.88072547      -2.51119290       0.51948251
H       -3.74440922      -8.19371625      -0.53428257
H       -2.44366436     -10.71140391      -1.01958572
H       -3.25271823      -9.63006914      -2.18588310
H       -5.74219079     -10.23615586       0.21176621
H       -7.57757710     -11.84221535       0.03764111
H       -7.47600990     -13.69540216      -1.60769884
H       -5.51760125     -13.91815095      -3.09348602
C       -3.38868227     -12.37885227      -3.18665472
C       -2.46295144     -12.53809931      -3.94302685
Br      -0.96612297     -12.79558830      -5.16601661
O       -6.00793815      -2.98827735       8.38516460
C       -5.30111130      -2.03333784       8.07388127
C       -3.79730498      -2.15647657       7.92238087
S       -3.34403863      -2.54987378       6.21885995
C       -3.33014876      -0.97066588       5.49535467
N       -3.92473058       0.09289755       6.00493924
C       -3.65497849       1.08735857       5.09394696
C       -2.88127840       0.59929194       4.06433762
O       -2.67678150      -0.73004100       4.31924690
C       -2.27550696       1.14292164       2.85671919
C       -2.48364429       2.48312288       2.49430088
C       -1.89868785       3.01387518       1.34006472
C       -1.09554496       2.21219488       0.53213644
C       -0.88205609       0.88205609       0.88205609
C       -1.46453648       0.34715688       2.03221985
N       -5.78771394      -0.75983501       7.88126983
C       -7.19291965      -0.44061121       8.01491954
C       -7.60567313      -0.00043333       9.40531914
C       -6.67629419       0.08258115      10.45996849
C       -7.06553680       0.46649019      11.74564367
C       -8.39408718       0.78132459      12.00610577
C       -9.33221909       0.71903942      10.97849349
C       -8.94326757       0.33372445       9.68927087
H       -3.46337466      -2.97252614       8.57230277
H       -3.29663957      -1.24900598       8.27712968
H       -4.02445818       2.09406269       5.23181987
H       -3.10507834       3.13609437       3.10287745
H       -2.06995492       4.05399636       1.07243013
H       -0.64329423       2.63069251      -0.36316937
H       -1.28178794      -0.69524112       2.28588903
H       -5.19396116      -0.10095819       7.37940507
H       -7.77715960      -1.31772519       7.71521957
H       -7.38511913       0.37493075       7.30862058
H       -5.62989025      -0.16255247      10.29924265
H       -6.32859616       0.50970292      12.54385226
H       -8.69934406       1.07159406      13.00817277
H      -10.36869697       0.96757826      11.19296299
C       -9.97099873       0.30206978       8.68112076
C      -10.83172357       0.27555899       7.83679504
Br     -12.22344285       0.23269328       6.47159176
O        3.22135771       1.88632565      10.06979333
C        2.86089506       0.92089131       9.40165098
C        1.43836742       0.77279398       8.89763584
S        1.25265657       1.49009048       7.25045872
C        1.79045458       0.18004356       6.24442653
N        2.52245063      -0.83605746       6.66405928
C        2.70625254      -1.59689039       5.53314109
C        2.05742424      -1.02756544       4.45991829
O        1.47179574       0.12239750       4.91658916
C        1.86781729      -1.35395241       3.05337810
C        2.48136092      -2.48588426       2.49382288
C        2.29735919      -2.80958941       1.14567915
C        1.49555669      -2.00660187       0.33771772
C        0.88205609      -0.88205609       0.88205609
C        1.06347530      -0.55388609       2.22655182
N        3.68630677      -0.13536631       9.08747569
C        5.06951586      -0.18793526       9.50977685
C        5.29209072      -0.87732589      10.84114234
C        4.22211646      -1.41373311      11.58299425
C        4.42916225      -2.02782069      12.82068772
C        5.71320467      -2.12422398      13.34408889
C        6.79131489      -1.61257954      12.62585757
C        6.58489932      -0.99619453      11.38516905
H        0.78233608       1.31015432       9.59096952
H        1.12625822      -0.27698350       8.92152155
H        3.28586584      -2.50932752       5.55514738
H        3.11347625      -3.13383260       3.09674131
H        2.77997610      -3.68960760       0.72679771
H        1.35597939      -2.26382772      -0.70898974
H        0.57223849       0.32954964       2.62974701
H        3.39525027      -0.74925683       8.32790094
H        5.45730629       0.83588854       9.55323623
H        5.60281488      -0.73894814       8.72690744
H        3.20253554      -1.35187839      11.21216650
H        3.58261747      -2.42202230      13.37751158
H        5.87405703      -2.59400789      14.31104597
H        7.79154502      -1.69343777      13.04425544
C        7.75163459      -0.50042128      10.70213339
C        8.72877537      -0.08521119      10.13009103
Br      10.30872938       0.58614841       9.20514692
