137
Properties=species:S:1:pos:R:3 pbc="F F F"
C        0.00000000       0.00000000       0.00000000
C        0.88130956       0.88130956      -0.88130956
C        2.17571405       1.20105146      -0.46955315
C        2.99138803       2.01186955      -1.27101201
C        2.50902873       2.50852691      -2.48222882
N        3.24059912       3.33092142      -3.36571269
C        4.54090220       3.77244410      -3.23615114
O        5.25539247       3.57605432      -2.25961133
C        5.02527145       4.55505434      -4.36158347
C        5.94612567       5.57887774      -4.24487027
C        6.68357808       6.18304774      -3.11696709
O        6.17280590       6.12852399      -5.46093254
N        5.42097328       5.47853993      -6.40835479
C        4.74796453       4.50779632      -5.76786277
C        3.89215112       3.60273938      -6.53931644
C        3.13034860       4.10670085      -7.60683804
C        2.30080804       3.26740541      -8.35395403
C        2.21732617       1.91335084      -8.03868795
C        2.97772832       1.40396982      -6.98813745
Br       2.85523015      -0.43157594      -6.55067028
C        3.82418619       2.23359491      -6.24905328
C        1.20527737       2.16925775      -2.87199670
F        0.72978636       2.63242926      -4.03948146
C        0.38828820       1.36166336      -2.08849272
H        2.56411147       0.82611375       0.47540310
H        3.99174960       2.23562190      -0.91320235
H        2.71875414       3.62809614      -4.18572633
H        6.06987071       6.20630128      -2.21157448
H        6.97388005       7.21376334      -3.34575926
H        7.59214693       5.61097736      -2.90721196
H        3.18333588       5.16285263      -7.86959978
H        1.72333757       3.67212943      -9.18189874
H        1.56580289       1.26596378      -8.62028284
H        4.42964412       1.80278718      -5.45517453
H       -0.61274487       1.12199445      -2.43067312
C       -0.88130956      -0.88130956      -0.88130956
C       -0.33738561      -1.50286987      -2.00606318
C       -1.13963968      -2.31187200      -2.82275791
C       -2.48875447      -2.49362490      -2.51740509
N       -3.38635420      -3.28378437      -3.26709466
C       -3.12165730      -4.03390275      -4.39393738
O       -2.04615145      -4.06351227      -4.98139440
C       -4.25726488      -4.79327674      -4.89136764
C       -4.46429346      -5.07780195      -6.22777828
C       -3.73346326      -4.77521428      -7.47491538
O       -5.61629070      -5.77374740      -6.37222433
N       -6.19063191      -5.97573291      -5.14150319
C       -5.36891858      -5.41882710      -4.23587794
C       -5.69783566      -5.52434872      -2.81202256
C       -7.03529216      -5.41188562      -2.39670971
C       -7.37568388      -5.50138758      -1.04509603
C       -6.38131964      -5.69812466      -0.08992066
C       -5.05382635      -5.82117144      -0.49483779
Br      -3.70139355      -6.07504538       0.80211443
C       -4.70828228      -5.75210656      -1.84644553
C       -3.00799194      -1.85869838      -1.37984148
F       -4.30280487      -2.03110273      -1.06778949
C       -2.22142755      -1.05809276      -0.55892396
H        0.71181291      -1.36598027      -2.26065476
H       -0.67618992      -2.77686455      -3.68751937
H       -4.34079306      -3.27398505      -2.91779850
H       -3.27226887      -3.78409476      -7.43138285
H       -4.40799760      -4.78803104      -8.33737401
H       -2.94809649      -5.51761325      -7.64462650
H       -7.82741711      -5.25918118      -3.12919001
H       -8.41667270      -5.41960310      -0.74108994
H       -6.65164606      -5.76155170       0.96114825
H       -3.66840405      -5.88306438      -2.13613740
H       -2.66419725      -0.58871768       0.31299223
C       -0.88130956       0.88130956       0.88130956
C       -0.52928985       1.10387552       2.21315329
C       -1.33387609       1.90960618       3.03078733
C       -2.49509492       2.48759714       2.51709240
N       -3.37651572       3.31334773       3.24736978
C       -3.26322233       3.72840636       4.55786874
O       -2.39030384       3.36345188       5.33730240
C       -4.31145719       4.63659664       4.99385543
C       -4.79145046       4.68973515       6.28868807
C       -4.47984299       3.96600615       7.53774377
O       -5.77775667       5.61313424       6.37137152
N       -5.96581013       6.19844401       5.14361386
C       -5.06939161       5.64402568       4.31020633
C       -4.99541750       6.11425798       2.92453147
C       -6.17669872       6.43316238       2.23402639
C       -6.13525548       6.87664596       0.91026605
C       -4.91131402       7.00076786       0.25728307
C       -3.73466957       6.69650862       0.93865740
Br      -2.07330353       6.85192529       0.04909567
C       -3.76712804       6.27103622       2.26867011
C       -2.82318547       2.24866081       1.17468553
F       -3.93322240       2.80528488       0.66318980
C       -2.03066837       1.45572841       0.35204750
H        0.37030570       0.65514784       2.62997997
H       -1.02302358       2.05697155       4.06057871
H       -4.19181124       3.61819758       2.72256778
H       -4.23195407       2.91967366       7.33611874
H       -5.33549570       3.97698410       8.22092286
H       -3.63118542       4.43326246       8.04588838
H       -7.14363694       6.34380374       2.72834761
H       -7.05844853       7.12642592       0.39249129
H       -4.88564639       7.34123764      -0.77483452
H       -2.83143679       6.07092025       2.78524879
H       -2.32101824       1.30037417      -0.68146971
C        0.88130956      -0.88130956       0.88130956
C        2.19283276      -1.15931857       0.49416734
C        3.00873034      -1.96978699       1.29575226
C        2.50966491      -2.50786248       2.48225706
N        3.23981133      -3.33397039       3.36345151
C        4.55342029      -3.74054361       3.25553353
O        5.28624508      -3.50275792       2.30205511
C        5.02967151      -4.53887516       4.37336259
C        5.97819151      -5.53690167       4.25478050
C        6.75748452      -6.09488484       3.13122356
O        6.18893674      -6.11089382       5.46243188
N        5.39850394      -5.50299562       6.40636845
C        4.71732340      -4.53323737       5.77306285
C        3.82090452      -3.66857153       6.54473090
C        3.04622269      -4.21714588       7.58051892
C        2.17828101      -3.41696251       8.32692397
C        2.06889458      -2.05792212       8.04254826
C        2.84163172      -1.50438630       7.02381757
Br       2.68426747       0.33794274       6.62799977
C        3.72604630      -2.29469491       6.28609317
C        1.18884829      -2.21001878       2.84766474
F        0.69687491      -2.71337761       3.99144457
C        0.37128172      -1.40324929       2.06391327
H        2.59456759      -0.75176786      -0.43151334
H        4.02270073      -2.16031876       0.95755435
H        2.70580426      -3.66393561       4.16283674
H        6.16663538      -6.11052105       2.21059005
H        7.06763985      -7.12363006       3.34213275
H        7.65639503      -5.49596577       2.95797546
H        3.11901462      -5.27789818       7.81887549
H        1.59115747      -3.85595542       9.13025285
H        1.38762924      -1.44111791       8.62330236
H        4.33966904      -1.82980153       5.51813527
H       -0.64337628      -1.19643911       2.38685987
