149
Properties=species:S:1:pos:R:3 pbc="F F F"
C        0.00000000       0.00000000       0.00000000
C        0.88201828       0.88201828      -0.88201828
C        1.87659867       1.66407675      -0.30097606
C        2.66621089       2.48379198      -1.10606096
C        2.46020920       2.51966568      -2.48883251
C        1.47483882       1.71817607      -3.08410780
C        0.67987064       0.90250437      -2.26185870
C        1.23629321       1.74572678      -4.52905049
N       -0.02399777       1.65131901      -4.98754340
O        0.04152657       1.77132911      -6.35414700
C        1.33289551       1.91347774      -6.73448669
C        1.57321695       2.04744490      -8.18563835
C        2.15302252       1.87499057      -5.62241691
C        3.60048927       1.96450227      -5.69572785
O        4.13364799       2.64417707      -6.56540000
N        4.26629599       1.19224206      -4.76145737
C        5.66033295       1.02185474      -4.62110849
C        6.61062654       1.63260020      -5.43750147
C        7.97343581       1.37970038      -5.24887446
C        8.39972890       0.51896166      -4.23620894
Br      10.26649707       0.21652222      -4.06734007
C        7.46601458      -0.09333756      -3.38967609
C        7.87475661      -1.02566191      -2.28356604
C        6.09829452       0.16724151      -3.59865728
H        2.03295089       1.65338801       0.77499447
H        3.43271447       3.10992084      -0.65427826
H        3.06731584       3.19956537      -3.08360292
H       -0.10871668       0.29219039      -2.69928980
H        2.44369759       1.45955546      -8.49276059
H        1.75251186       3.09489987      -8.44562071
H        0.71312750       1.69397784      -8.76300817
H        3.69436810       0.63876548      -4.13438412
H        6.33461342       2.30597391      -6.24289565
H        8.69354442       1.85946527      -5.90835211
H        7.00945664      -1.36109244      -1.70187114
H        8.55436165      -0.52269169      -1.58816892
H        8.35921472      -1.91688155      -2.69510650
H        5.36964652      -0.31255001      -2.94761505
C       -0.88201828      -0.88201828      -0.88201828
C       -2.15304519      -0.44426478      -1.24434151
C       -2.96374674      -1.26028077      -2.03203633
C       -2.50242452      -2.51071370      -2.45556918
C       -1.21481548      -2.94933160      -2.11297561
C       -0.41016936      -2.12206620      -1.31199815
C       -0.71405624      -4.25836281      -2.53865142
N        0.05417523      -4.97190172      -1.69713815
O        0.31974133      -6.16689337      -2.31985065
C       -0.25943249      -6.17808562      -3.54334183
C       -0.05818170      -7.40036004      -4.34775845
C       -0.91047497      -4.97837536      -3.76157967
C       -1.60272577      -4.66024016      -4.99775346
O       -2.16276556      -5.54384539      -5.63661411
N       -1.51077852      -3.33320801      -5.37600888
C       -2.02064691      -2.73457383      -6.54807544
C       -2.72127940      -3.42156160      -7.53788720
C       -3.16129114      -2.75462698      -8.68609253
C       -2.91142513      -1.39149234      -8.85198202
Br      -3.52555644      -0.57335239     -10.45145052
C       -2.22551619      -0.67340282      -7.86343411
C       -1.93420152       0.79556303      -7.99402225
C       -1.78396264      -1.36243785      -6.71779283
H       -2.52491130       0.51999985      -0.90643298
H       -3.96435003      -0.92983745      -2.30272610
H       -3.17495851      -3.13939664      -3.03612897
H        0.58255957      -2.45368592      -1.01163716
H        0.14704793      -7.14991641      -5.39314517
H       -0.95171163      -8.03054717      -4.31077365
H        0.78839457      -7.98473405      -3.97377404
H       -0.97052312      -2.72255137      -4.77444321
H       -2.93825233      -4.48248201      -7.46274864
H       -3.69477620      -3.31737326      -9.44921234
H       -1.43684807       1.18654262      -7.09992991
H       -2.86255384       1.36202860      -8.11931363
H       -1.27095467       0.97890499      -8.84538998
H       -1.24424750      -0.80932395      -5.95114012
C       -0.88201828       0.88201828       0.88201828
C       -1.63753665       0.30494600       1.89916882
C       -2.45750466       1.10952680       2.68903238
C       -2.52013223       2.48783741       2.46073775
C       -1.74527555       3.07961684       1.45223030
C       -0.92914909       2.25771910       0.65736551
C       -1.80117232       4.51966992       1.19022823
N       -1.73545423       4.95832538      -0.07891497
O       -1.87741389       6.32365968      -0.03407088
C       -2.00450470       6.72333373       1.25302151
C       -2.15894292       8.17591160       1.47144568
C       -1.93363887       5.62606007       2.09073107
C       -2.00033276       5.72230056       3.53808608
O       -2.68564751       6.58944595       4.06813160
N       -1.20146318       4.81235295       4.20617928
C       -1.00561093       4.69840629       5.59927897
C       -1.61419107       5.52047386       6.54606327
C       -1.33555285       5.35910526       7.90735255
C       -0.45088243       4.36821001       8.33580705
Br      -0.11468548       4.23592428      10.19974960
C        0.16003510       3.51631669       7.40607152
C        1.11755723       2.43289526       7.81732271
C       -0.12670536       3.69782339       6.03966456
H       -1.60609066      -0.76790589       2.07315967
H       -3.06310575       0.66041610       3.47339172
H       -3.19980325       3.08140279       3.06927808
H       -0.33948279       2.69184686      -0.14856614
H       -1.56195171       8.50740315       2.32665879
H       -3.20751667       8.42145844       1.66405734
H       -1.82960103       8.74446766       0.59604483
H       -0.64705046       4.18498885       3.63547839
H       -2.30555495       6.30980347       6.26812456
H       -1.81436154       6.02259000       8.62441025
H        1.44834848       1.84232414       6.95625969
H        0.63775029       1.74081605       8.51677312
H        2.00962220       2.86729470       8.27976716
H        0.35184577       3.04262797       5.31392937
C        0.88201828      -0.88201828       0.88201828
C        0.64888842      -0.93932887       2.25343420
C        1.46847927      -1.72882626       3.05875831
C        2.51807801      -2.45874339       2.49188599
C        2.74557602      -2.42338296       1.10816371
C        1.91846029      -1.61784911       0.30792431
C        3.84375395      -3.17329096       0.49402557
N        4.52025625      -2.62474054      -0.53013215
O        5.52215947      -3.50447024      -0.85962701
C        5.44709125      -4.59529433      -0.06152564
C        6.45836476      -5.64558642      -0.29765097
C        4.37911701      -4.46495028       0.80636273
C        4.00571216      -5.48503061       1.76997663
O        4.86577193      -6.18472925       2.29272387
N        2.64285610      -5.60557136       1.97156795
C        1.97291456      -6.53839628       2.79198534
C        2.61321153      -7.51597322       3.55154345
C        1.86741997      -8.42372156       4.31086912
C        0.47331047      -8.35758157       4.32400745
Br      -0.45811193      -9.64364297       5.36482832
C       -0.19437921      -7.37272816       3.58400416
C       -1.69319375      -7.25845970       3.56739479
C        0.57206189      -6.47204381       2.82008761
H       -0.15550059      -0.36289954       2.70394548
H        1.30102654      -1.76265784       4.13322920
H        3.16320413      -3.03374542       3.15353458
H        2.09343149      -1.55427414      -0.76494212
H        6.00554096      -6.64076603      -0.25029335
H        7.24894923      -5.58772635       0.45635687
H        6.91839410      -5.53655525      -1.28483582
H        2.04452147      -4.99222840       1.43076782
H        3.69385339      -7.61596928       3.57366032
H        2.39176402      -9.18498776       4.88461000
H       -2.02301359      -6.39833979       2.97490915
H       -2.07933048      -7.11719922       4.58197013
H       -2.13931159      -8.15385680       3.12289445
H        0.05638616      -5.71026581       2.23805961
