170
Properties=species:S:1:pos:R:3 pbc="F F F"
C        1.79192230       1.79192230      -1.79192230
C        2.78650269       2.57398078      -1.21088009
C        3.57611492       3.39369601      -2.01596499
C        3.37011323       3.42956971      -3.39873653
C        2.38474284       2.62808010      -3.99401182
C        1.58977466       1.81240840      -3.17176272
C        2.14619724       2.65563080      -5.43895451
N        0.88590625       2.56122303      -5.89744743
O        0.95143060       2.68123314      -7.26405103
C        2.24279954       2.82338177      -7.64439071
C        2.48312097       2.95734892      -9.09554238
C        3.06292655       2.78489460      -6.53232094
C        4.51039329       2.87440630      -6.60563187
O        5.04355202       3.55408110      -7.47530402
N        5.17620002       2.10214608      -5.67136139
C        6.57023698       1.93175876      -5.53101252
C        7.52053056       2.54250422      -6.34740549
C        8.88333984       2.28960440      -6.15877848
C        9.30963292       1.42886568      -5.14611297
Br      11.17640109       1.12642624      -4.97724410
C        8.37591861       0.81656647      -4.29958011
C        8.78466063      -0.11575788      -3.19347007
C        7.00819855       1.07714553      -4.50856130
H        2.94285492       2.56329203      -0.13490956
H        4.34261849       4.01982487      -1.56418229
H        3.97721986       4.10946939      -3.99350694
H        0.80118734       1.20209441      -3.60919383
H        3.35360161       2.36945949      -9.40266462
H        2.66241588       4.00480389      -9.35552474
H        1.62303153       2.60388187      -9.67291219
H        4.60427212       1.54866950      -5.04428815
H        7.24451745       3.21587794      -7.15279967
H        9.60344844       2.76936929      -6.81825613
H        7.91936067      -0.45118841      -2.61177517
H        9.46426567       0.38721233      -2.49807294
H        9.26911874      -1.00697753      -3.60501052
H        6.27955055       0.59735402      -3.85751907
C       -1.79192230      -1.79192230      -1.79192230
C       -3.13379338      -1.97087592      -1.46669426
C       -3.93119266      -2.79300168      -2.26158157
C       -3.38602476      -3.43355664      -3.37883806
C       -2.04053843      -3.24076986      -3.72552647
C       -1.24477928      -2.41678982      -2.91237669
C       -1.44652461      -3.90782135      -4.88643659
N       -0.18071035      -4.35422737      -4.80963899
O        0.08890607      -4.98742351      -5.99819733
C       -0.99305925      -4.90951342      -6.80799934
C       -0.85871279      -5.54075813      -8.13654136
C       -2.00006336      -4.20639735      -6.17368137
C       -3.28174613      -3.91691384      -6.79177149
O       -3.78115068      -4.71271982      -7.57906663
N       -3.81172544      -2.68540455      -6.45257750
C       -5.00141166      -2.09786341      -6.93373318
C       -5.85272664      -2.69765590      -7.86005774
C       -6.99536498      -2.02721640      -8.30914134
C       -7.30199772      -0.75269138      -7.82992247
Br      -8.86020037       0.09142886      -8.51129993
C       -6.47283080      -0.13494549      -6.88428890
C       -6.76113533       1.23472474      -6.33596222
C       -5.32338286      -0.82158391      -6.44893861
H       -3.56143865      -1.48859130      -0.59102656
H       -4.97579672      -2.94980199      -2.00102694
H       -4.02560950      -4.09940071      -3.95518599
H       -0.19111770      -2.27414395      -3.14721393
H       -1.30085407      -4.91052115      -8.91435049
H       -1.36285992      -6.51163297      -8.14825163
H        0.19321952      -5.69830737      -8.39473775
H       -3.26229989      -2.10757446      -5.82735543
H       -5.65950873      -3.68423551      -8.26945081
H       -7.63604541      -2.51287687      -9.04215158
H       -6.02981414       1.52322629      -5.57335957
H       -7.74733936       1.25917394      -5.86138553
H       -6.71576478       1.98263826      -7.13402521
H       -4.67290883      -0.34161419      -5.71990062
C       -1.79192230       1.79192230       1.79192230
C       -1.78002182       1.61809470       3.17324703
C       -2.60149230       2.41028999       3.97399362
C       -3.43200421       3.37369590       3.39271935
C       -3.43332705       3.56976251       2.00374520
C       -2.60757952       2.75996651       1.20639975
C       -4.30077488       4.56722855       1.37277912
N       -4.87104370       4.28509070       0.18844232
O       -5.67276385       5.35383499      -0.12988408
C       -5.57716612       6.29533099       0.83807491
C       -6.37942569       7.51912670       0.63745988
C       -4.69399548       5.87240268       1.81374393
C       -4.34393213       6.67298081       2.97351852
O       -5.17136936       7.42359008       3.47797769
N       -3.02895905       6.54011899       3.38062945
C       -2.37811964       7.22711176       4.42777685
C       -2.99071884       8.18013335       5.23958808
C       -2.25933846       8.83879978       6.23358449
C       -0.90919148       8.54486859       6.43055149
Br       0.01044364       9.50335761       7.78715746
C       -0.27404805       7.57753620       5.64048094
C        1.17648269       7.22367397       5.81518153
C       -1.02385865       6.92978036       4.64026637
H       -1.14854115       0.86087545       3.63163990
H       -2.60856012       2.26576930       5.05229622
H       -4.08963154       3.94802602       4.04253864
H       -2.61227515       2.87644128       0.12375916
H       -5.80576021       8.41053964       0.90942587
H       -7.28267353       7.48620313       1.25386785
H       -6.68285751       7.62574454      -0.40877646
H       -2.44211177       5.91908202       2.83603599
H       -4.03574103       8.45104656       5.12640747
H       -2.75861619       9.58762394       6.84483373
H        1.47501773       6.41267024       5.14229492
H        1.36828195       6.88084050       6.83699240
H        1.80991140       8.08750306       5.58956008
H       -0.53176593       6.18302964       4.01962807
C        1.79192230      -1.79192230       1.79192230
C        1.53460062      -1.87935276       3.15741017
C        2.35388841      -2.66859193       3.96329557
C        3.42734868      -3.36817477       3.40289602
C        3.67968140      -3.30255914       2.02459422
C        2.85247531      -2.49752398       1.22394649
C        4.80295423      -4.02033760       1.41749072
N        5.48782207      -3.44018257       0.41657208
O        6.51203685      -4.29487843       0.08979948
C        6.44278609      -5.40174227       0.86604366
C        7.47785433      -6.42852646       0.62963149
C        5.35668478      -5.30753289       1.71592442
C        4.98480914      -6.35231012       2.65331220
O        5.84808425      -7.04571146       3.17914142
N        3.62097143      -6.50180000       2.82693606
C        2.95366614      -7.46213702       3.61720509
C        3.59811096      -8.44184273       4.37048659
C        2.85563912      -9.37736347       5.09872013
C        1.46052660      -9.33726593       5.08681903
Br       0.53441015     -10.65970145       6.08595984
C        0.78820007      -8.35116099       4.35270413
C       -0.71193759      -8.26432707       4.30998333
C        1.55153216      -7.42223358       3.62013964
H        0.71130666      -1.32647962       3.60327023
H        2.16726819      -2.72574457       5.03361289
H        4.07084860      -3.94351241       4.06583518
H        3.04602152      -2.41052954       0.15592452
H        7.04305663      -7.43262247       0.65004663
H        8.25313482      -6.37027300       1.39933669
H        7.95391929      -6.29243575      -0.34652945
H        3.02129053      -5.88954590       2.28639334
H        4.67985095      -8.52224342       4.41110068
H        3.38353235     -10.13947752       5.66806400
H       -1.04688970      -7.39944465       3.72739247
H       -1.11935618      -8.14936321       5.31954392
H       -1.13281839      -9.15928739       3.84068274
H        1.03244779      -6.65929158       3.04268427
C       -0.00445707       0.01189536      -1.78238275
H       -0.66409135       0.67374010      -2.43557963
H        0.65740317      -0.63156657      -2.45157240
C       -0.90989263      -0.90692880      -0.91072765
C        0.90977584       0.90977584      -0.90977584
C       -0.00465871       1.77757030       0.00794375
H       -0.66225468       2.44313916      -0.64384735
H        0.64322798       2.43503045       0.67728295
C       -1.78241447       0.00034974      -0.00472694
H       -2.45427497      -0.65498947       0.64260836
H       -2.43311707       0.67328779      -0.65473579
C       -0.91132561       0.90220522       0.91563759
C       -0.01476271      -0.02253852       1.78660255
H       -0.67934791      -0.69751639       2.42135241
H        0.63392994       0.61504881       2.47327442
C        0.01484550      -1.77751727      -0.01636693
H        0.67870853      -2.42144646      -0.68295456
H       -0.62264859      -2.45592969       0.64226336
C        1.78714474       0.01002794       0.00389507
H        2.44202412       0.67113390       0.66197326
H        2.45385902      -0.65136977      -0.64189061
C        0.91606151      -0.90478549       0.90901405
