158
Properties=species:S:1:pos:R:3 pbc="F F F"
C        1.79129657       1.79129657      -1.79129657
C        1.68634718       3.17603903      -1.70723205
C        2.49204703       3.97978722      -2.51836895
C        3.41187251       3.41044961      -3.41613536
C        3.52184256       2.01364746      -3.46627410
C        2.70426591       1.20619230      -2.66636024
C        4.25375835       4.28311443      -4.24018435
N        4.67282985       5.45517815      -3.73193728
O        5.48664490       6.02955817      -4.67527333
C        5.55064594       5.23055404      -5.76559903
C        6.39568859       5.72433154      -6.87137861
C        4.76688329       4.10870951      -5.56655704
C        4.61780151       3.05189703      -6.55167321
O        5.55052192       2.77044446      -7.29608358
N        3.36922738       2.46203054      -6.59383715
C        2.96133815       1.38740856      -7.42007741
C        3.80771598       0.68904122      -8.28407448
C        3.31277022      -0.36374747      -9.06418205
C        1.96805698      -0.72372963      -8.98042147
Br       1.31217097      -2.14193274     -10.04390989
C        1.11111903      -0.04647807      -8.12101633
C        1.61594488       0.99713228      -7.35052443
F        0.78635850       1.64756257      -6.51977024
H        0.99144833       3.64253740      -1.01343939
H        2.40433181       5.06257343      -2.43350787
H        4.25269474       1.52748089      -4.10853774
H        2.79701354       0.12425035      -2.72420252
H        7.43946455       5.44177769      -6.70555016
H        6.34288890       6.81554026      -6.94143510
H        6.07569052       5.31730995      -7.83472165
H        2.63555843       2.85373877      -6.01019319
H        4.86244930       0.92890972      -8.37905278
H        3.98945116      -0.89262300      -9.73242541
H        0.06250421      -0.31399691      -8.04075645
C       -1.79129657      -1.79129657      -1.79129657
C       -1.52334375      -1.89360861      -3.15266589
C       -2.33462504      -2.69836375      -3.95721440
C       -3.41623534      -3.41114693      -3.41107520
C       -3.65305454      -3.31624758      -2.03246200
C       -2.85158177      -2.49792069      -1.22731599
C       -4.23680767      -4.25956560      -4.28068386
N       -3.65217813      -4.89894072      -5.30882643
O       -4.62272292      -5.66307348      -5.90568000
C       -5.80123498      -5.47907791      -5.26648612
C       -6.94568208      -6.24252130      -5.80319536
C       -5.63351336      -4.57566049      -4.23297599
C       -6.71042020      -4.15899294      -3.35195860
O       -7.60773443      -4.94388641      -3.06542912
N       -6.64863561      -2.84419305      -2.93226641
C       -7.53521207      -2.19035358      -2.04325847
C       -8.58919944      -2.81697187      -1.37466035
C       -9.41550586      -2.08637230      -0.51132663
C       -9.18815914      -0.72502550      -0.31156418
Br     -10.31518737       0.25005322       0.85098603
C       -8.13979642      -0.08449362      -0.96136725
C       -7.32545821      -0.82232133      -1.81582205
F       -6.31239719      -0.20135029      -2.43994383
H       -0.68645573      -1.36216502      -3.59880437
H       -2.10551615      -2.77517085      -5.01972611
H       -4.44681106      -3.88658699      -1.55531532
H       -3.05475399      -2.42950455      -0.16120788
H       -6.96461524      -7.24848833      -5.37368883
H       -6.87263471      -6.33572879      -6.89150076
H       -7.89707599      -5.75216688      -5.57847926
H       -5.92370309      -2.25055993      -3.32522736
H       -8.80151702      -3.87516031      -1.49373447
H      -10.23241419      -2.59428101      -0.00255838
H       -7.94620543       0.97339236      -0.81645068
C       -1.79129657       1.79129657       1.79129657
C       -3.11545882       1.43217328       2.02198615
C       -3.92053165       2.24343086       2.82624068
C       -3.41148347       3.41621023       3.41076377
C       -2.06713528       3.74625922       3.18836962
C       -1.26326131       2.94370802       2.36984911
C       -4.27873349       4.23537742       4.26294622
N       -5.20644567       3.62923312       5.02426649
O       -5.82084382       4.61095061       5.75968196
C       -5.29357880       5.81507632       5.43814390
C       -5.86218191       6.97406176       6.15515507
C       -4.31981353       5.65260383       4.46973249
C       -3.56128486       6.75501923       3.90506766
O       -3.29017379       7.73112907       4.59574710
N       -3.23666992       6.61935027       2.56907488
C       -2.47253446       7.51415666       1.78213300
C       -1.84593664       8.66165493       2.27324011
C       -1.10818447       9.48849505       1.41652528
C       -0.99236638       9.16821104       0.06417140
Br       0.00057646      10.29657223      -1.08184765
C       -1.60176437       8.02658263      -0.44268970
C       -2.33111386       7.21287703       0.41961070
F       -2.91636278       6.10981182      -0.07248328
H       -3.53126905       0.52460427       1.59155180
H       -4.95262873       1.94304134       3.00474303
H       -1.61416033       4.61637213       3.65818091
H       -0.22488811       3.21925528       2.20132303
H       -5.36214854       7.10536776       7.11927610
H       -6.93121050       6.82820181       6.34045195
H       -5.75143484       7.89713061       5.57915668
H       -3.61320665       5.82202684       2.06425690
H       -1.90282976       8.94868589       3.31889615
H       -0.63026323      10.37896279       1.82002756
H       -1.52066187       7.76010724      -1.49150536
C        1.79129657      -1.79129657       1.79129657
C        1.88129910      -3.15538625       1.53293290
C        2.68610539      -3.95988555       2.34421224
C        3.41118614      -3.41103683       3.41623451
C        3.32848933      -2.02999540       3.64327939
C        2.51019111      -1.22472152       2.84190582
C        4.25923338      -4.28085429       4.23696946
N        4.88637488      -5.31820597       3.65536443
O        5.65333784      -5.91351238       4.62462619
C        5.48312943      -5.26406861       5.79960097
C        6.25117819      -5.79791733       6.94230321
C        4.58628392      -4.22501735       5.63084857
C        4.18446857      -3.33276209       6.70414109
O        4.97829698      -3.04544615       7.59330683
N        2.87243982      -2.90356840       6.64908684
C        2.23208003      -2.00295618       7.53378791
C        2.87171449      -1.33120911       8.57790807
C        2.15394735      -0.45614087       9.40311657
C        0.79245751      -0.24775926       9.18453205
Br      -0.16523281       0.93063422      10.31001515
C        0.13909476      -0.90056421       8.14599832
C        0.86424753      -1.76671870       7.33263536
F        0.23090645      -2.39372624       6.32905862
H        1.34016147      -3.60377234       0.70349131
H        2.75315361      -5.02464797       2.12261153
H        3.90842664      -1.55122376       4.42906297
H        2.45136340      -0.15662228       3.03748074
H        7.26047077      -5.37593724       6.95038439
H        6.33561727      -6.88741958       6.87682741
H        5.76977658      -5.56231239       7.89563315
H        2.27036806      -3.29746306       5.93165926
H        3.93055768      -1.45671658       8.78313754
H        2.67187197       0.05489958      10.21228118
H       -0.91910878      -0.74907683       7.95929570
C       -0.00445707       0.01189536      -1.78238275
H       -0.66409135       0.67374010      -2.43557963
H        0.65740317      -0.63156657      -2.45157240
C       -0.90989263      -0.90692880      -0.91072765
C        0.90977584       0.90977584      -0.90977584
C       -0.00465871       1.77757030       0.00794375
H       -0.66225468       2.44313916      -0.64384735
H        0.64322798       2.43503045       0.67728295
C       -1.78241447       0.00034974      -0.00472694
H       -2.45427497      -0.65498947       0.64260836
H       -2.43311707       0.67328779      -0.65473579
C       -0.91132561       0.90220522       0.91563759
C       -0.01476271      -0.02253852       1.78660255
H       -0.67934791      -0.69751639       2.42135241
H        0.63392994       0.61504881       2.47327442
C        0.01484550      -1.77751727      -0.01636693
H        0.67870853      -2.42144646      -0.68295456
H       -0.62264859      -2.45592969       0.64226336
C        1.78714474       0.01002794       0.00389507
H        2.44202412       0.67113390       0.66197326
H        2.45385902      -0.65136977      -0.64189061
C        0.91606151      -0.90478549       0.90901405
