137
Properties=species:S:1:pos:R:3 pbc="F F F"
C        0.00000000       0.00000000       0.00000000
C        0.88139255       0.88139255      -0.88139255
C        0.77644315       2.26613500      -0.79732802
C        1.58214300       3.06988319      -1.60846492
C        2.50196848       2.50054559      -2.50623133
C        2.61193854       1.10374343      -2.55637007
C        1.79436188       0.29628828      -1.75645621
C        3.34385433       3.37321041      -3.33028032
N        3.76292583       4.54527413      -2.82203325
O        4.57674087       5.11965415      -3.76536931
C        4.64074192       4.32065002      -4.85569500
C        5.48578457       4.81442751      -5.96147458
C        3.85697927       3.19880548      -4.65665302
C        3.70789748       2.14199301      -5.64176918
O        4.64061790       1.86054044      -6.38617956
N        2.45932336       1.55212651      -5.68393312
C        2.05143412       0.47750453      -6.51017339
C        2.89781195      -0.22086281      -7.37417045
C        2.40286619      -1.27365150      -8.15427803
C        1.05815295      -1.63363365      -8.07051745
Br       0.40226695      -3.05183677      -9.13400586
C        0.20121501      -0.95638210      -7.21111230
C        0.70604086       0.08722825      -6.44062041
F       -0.12354552       0.73765855      -5.60986622
H        0.08154431       2.73263337      -0.10353536
H        1.49442779       4.15266940      -1.52360385
H        3.34279071       0.61757687      -3.19863372
H        1.88710952      -0.78565367      -1.81429850
H        6.52956052       4.53187367      -5.79564614
H        5.43298487       5.90563623      -6.03153108
H        5.16578650       4.40740592      -6.92481763
H        1.72565440       1.94383475      -5.10028916
H        3.95254528       0.01900570      -7.46914875
H        3.07954714      -1.80252702      -8.82252138
H       -0.84739982      -1.22390093      -7.13085243
C       -0.88139255      -0.88139255      -0.88139255
C       -1.82832195      -0.29587413      -1.71571009
C       -2.63611456      -1.10601336      -2.51836319
C       -2.50368408      -2.50541347      -2.49964786
C       -1.52512927      -3.07447609      -1.67244668
C       -0.72582821      -2.26584985      -0.85542831
C       -3.35569958      -3.32463343      -3.36701205
N       -3.71075186      -2.84690573      -4.57257561
O       -4.43990072      -3.83060404      -5.19125957
C       -4.55410569      -4.89699641      -4.36598484
C       -5.31985866      -6.04057513      -4.90125287
C       -3.90602967      -4.63326960      -3.17313849
C       -3.84448713      -5.57665388      -2.07051867
O       -3.81107699      -6.78164006      -2.29462084
N       -3.87500292      -5.00904736      -0.81133272
C       -3.78615030      -5.68319581       0.43023407
C       -3.56672283      -7.05528584       0.57088907
C       -3.49272529      -7.63471808       1.84395065
C       -3.63548675      -6.84184541       2.98229541
Br      -3.54020924      -7.63807936       4.69385255
C       -3.84661882      -5.47326767       2.86394127
C       -3.91704096      -4.90986563       1.59301706
F       -4.11858063      -3.58755084       1.48215222
H       -1.94385201       0.78426791      -1.75812895
H       -3.36628595      -0.63124765      -3.17316744
H       -1.35120700      -4.14806574      -1.65972857
H        0.02258873      -2.72469390      -0.21364918
H       -4.67061216      -6.68184795      -5.50462022
H       -6.14269641      -5.69319589      -5.53425988
H       -5.75432832      -6.64424672      -4.09943501
H       -4.02123854      -4.00593342      -0.74260635
H       -3.44372412      -7.71171505      -0.28526055
H       -3.32353281      -8.70620802       1.93019932
H       -3.95765481      -4.84017659       3.73827972
C       -0.88139255       0.88139255       0.88139255
C       -0.90297930       0.67921619       2.25771068
C       -1.71395196       1.48543133       3.06110783
C       -2.50611018       2.50236538       2.50026985
C       -2.44956921       2.70792944       1.11455339
C       -1.65029037       1.89093597       0.30588003
C       -3.33242840       3.34094555       3.37397110
N       -2.88201722       3.64429417       4.60392182
O       -3.80774417       4.48316901       5.17085115
C       -4.83195648       4.67721081       4.30791965
C       -5.91156824       5.56403803       4.78608039
C       -4.60615135       3.95735809       3.14892833
C       -5.52146934       3.94893834       2.02125200
O       -6.18057819       4.94874421       1.75801549
N       -5.60429333       2.74834380       1.34274586
C       -6.37737106       2.47224159       0.18949940
C       -7.13162676       3.42222762      -0.50273478
C       -7.86610823       3.05475875      -1.63737426
C       -7.84629216       1.73430783      -2.08556324
Br      -8.84753940       1.25098891      -3.61409226
C       -7.09580746       0.77553672      -1.41539896
C       -6.36958999       1.15412976      -0.28983023
F       -5.64390448       0.22639204       0.35368272
H       -0.29162647      -0.09256029       2.71864687
H       -1.71216874       1.32035929       4.13817300
H       -3.00585802       3.51313466       0.64000862
H       -1.62490897       2.05904269      -0.76819731
H       -5.65730326       6.60983169       4.58994538
H       -6.06225478       5.44415568       5.86374173
H       -6.86266846       5.34090788       4.29443370
H       -5.09982841       1.95075538       1.71919452
H       -7.17329548       4.46282437      -0.19542013
H       -8.44881164       3.81072297      -2.15999310
H       -7.06641933      -0.25609345      -1.75077420
C        0.88139255      -0.88139255       0.88139255
C        0.37437345      -2.07103384       1.39449889
C        1.18280030      -2.87353193       2.20415888
C        2.50407699      -2.49955183       2.50511658
C        3.00514137      -1.31075338       1.95615730
C        2.19188771      -0.49714482       1.15807384
C        3.33029979      -3.37321939       3.34382588
N        3.16850165      -4.70509363       3.25663793
O        4.10044385      -5.27421787       4.08710262
C        4.81549305      -4.30210560       4.69948830
C        5.86231139      -4.76868536       5.63068991
C        4.36032577      -3.06211517       4.28999683
C        4.91805134      -1.80815528       4.76545305
O        6.10950941      -1.73291759       5.04491090
N        4.00768934      -0.77890609       4.90878756
C        4.28043890       0.55103097       5.30970412
C        5.55955987       1.05790929       5.54946902
C        5.73172672       2.39112985       5.94289585
C        4.62339795       3.22372645       6.09536525
Br       4.86987285       5.01880288       6.63336608
C        3.34272642       2.74079734       5.85401613
C        3.18558467       1.41425985       5.46256470
F        1.94771502       0.95162443       5.22788865
H       -0.64009864      -2.38960869       1.16820300
H        0.77370702      -3.80675580       2.59023822
H        4.03566827      -1.00368551       2.11964752
H        2.59426200       0.42587086       0.74736320
H        6.78450453      -4.98801585       5.08455994
H        5.54375259      -5.68063299       6.14576660
H        6.08303049      -4.01910501       6.39587455
H        3.02433459      -0.98623509       4.75920864
H        6.45238013       0.45001096       5.43833055
H        6.73719684       2.76444887       6.12679354
H        2.46879229       3.37442351       5.96518289
