146
Properties=species:S:1:pos:R:3 pbc="F F F"
C        1.79262429       1.79262429      -1.79262429
C        1.74136258       1.64922285      -3.18081306
C        2.54331668       2.45694646      -3.98945832
C        3.39589977       3.39555920      -3.39915403
C        3.44092785       3.54233758      -2.00906286
C        2.63796044       2.73352308      -1.20251810
S        4.36797743       4.48078783      -4.42743500
O        3.76618844       4.46016315      -5.74965147
O        4.52860746       5.73487647      -3.71917402
N        5.83775729       3.66813086      -4.55217938
N        6.62036113       3.32138585      -3.39008217
C        7.59444539       2.46491905      -3.72948884
H        7.75046982       2.05740348      -4.72449940
C        8.55123140       2.00132444      -2.70751443
C        8.75099149       2.70018471      -1.50557915
C        9.67604482       2.24456251      -0.56354876
C       10.41971286       1.08860669      -0.79752709
C       10.23811403       0.38894787      -1.98878512
C        9.31665456       0.84790130      -2.93164135
F        9.18235317       0.14192489      -4.06678267
H        1.08778367       0.91447694      -3.64147632
H        2.51290703       2.35053131      -5.07060442
H        4.11838700       4.26936554      -1.56484711
H        2.68842102       2.84236700      -0.12339670
H        6.00753723       3.21764646      -5.44791087
H        8.18050516       3.60802812      -1.31933631
H       11.13759998       0.73124996      -0.06610780
H       10.80477705      -0.51190439      -2.19755047
C        9.87070786       2.97536674       0.66186197
C       10.03373815       3.58741529       1.68814347
Br      10.29734434       4.57704603       3.34755384
C       -1.79262429      -1.79262429      -1.79262429
C       -2.72645118      -2.64514420      -1.19980312
C       -3.53674488      -3.44925457      -2.00372200
C       -3.39804657      -3.39798665      -3.39457978
C       -2.46694953      -2.53869021      -3.98668856
C       -1.65784732      -1.73548141      -3.18067289
S       -4.47942377      -4.36683301      -4.42994348
O       -5.62167283      -4.74068110      -3.61364913
O       -4.67513396      -3.63949624      -5.66802776
N       -3.59162893      -5.77357310      -4.69286551
N       -2.28261888      -5.74884813      -5.30036213
C       -1.68703121      -6.94180684      -5.16001524
H       -2.10787486      -7.79281470      -4.63168314
C       -0.35098948      -7.16662021      -5.74246059
C        0.16011315      -6.35123596      -6.76563253
C        1.42303333      -6.59897600      -7.30821342
C        2.20055710      -7.66014398      -6.84625977
C        1.70365269      -8.48244731      -5.83705239
C        0.43929980      -8.23670831      -5.29878871
F        0.00241661      -9.06125239      -4.33222495
H       -2.82943161      -2.69440762      -0.11989769
H       -4.26408351      -4.11835432      -1.55160493
H       -2.36330198      -2.51922258      -5.07007508
H       -0.92683107      -1.08130940      -3.64604424
H       -3.91006550      -6.58846848      -4.17456059
H       -0.44425235      -5.52613532      -7.13748193
H        3.18319214      -7.85343010      -7.26471977
H        2.28622687      -9.31614181      -5.46050819
C        1.93004955      -5.75512255      -8.35913963
C        2.35467564      -5.04839528      -9.23929033
Br       3.04126011      -3.90567707     -10.66241957
C       -1.79262429       1.79262429       1.79262429
C       -2.42158413       1.23965212       2.91016225
C       -3.22487362       2.04448652       3.72036132
C       -3.39747657       3.39465429       3.39848214
C       -2.76141583       3.94819904       2.28271344
C       -1.95854859       3.14136839       1.47408463
S       -4.36170659       4.44533023       4.46916345
O       -4.46154892       3.76528827       5.74916587
O       -3.80587539       5.78164806       4.39513451
N       -5.89390989       4.39193567       3.77222197
N       -6.12704803       4.79785898       2.40692213
C       -7.35266449       4.41946353       2.01672527
H       -8.05541063       3.85428411       2.62267796
C       -7.83030209       4.76484389       0.66492430
C       -7.24703481       5.79744843      -0.08772789
C       -7.73190511       6.11157662      -1.35932563
C       -8.80416773       5.40783844      -1.90615953
C       -9.39810009       4.38594859      -1.16820167
C       -8.91564524       4.07600915       0.10454282
F       -9.52575771       3.08680270       0.77850031
H       -2.29744860       0.18943289       3.15685544
H       -3.72116741       1.62256918       4.59030617
H       -2.91537169       4.99791437       2.03931358
H       -1.47932079       3.57382862       0.60103530
H       -6.57584584       3.82611795       4.27113076
H       -6.41519923       6.35702285       0.33564751
H       -9.18140047       5.64855090      -2.89499363
H      -10.23487813       3.82388166      -1.56833667
C       -7.12428631       7.17565253      -2.11572622
C       -6.61540557       8.06681611      -2.74921171
Br      -5.79258846       9.50775225      -3.77350417
C        1.79262429      -1.79262429       1.79262429
C        2.99708748      -2.28688964       1.28742137
C        3.80712521      -3.08978034       2.09281591
C        3.39869073      -3.39716721       3.39475506
C        2.19535632      -2.89575832       3.90121366
C        1.38706578      -2.09300297       3.09393286
S        4.46211554      -4.36042012       4.45366460
O        5.79405218      -4.30605909       3.87589178
O        4.24093835      -3.92395945       5.81776016
N        3.90002170      -5.93161147       4.22643436
N        2.53166731      -6.30073494       4.49942689
C        2.27384332      -7.51711049       3.99789949
H        2.97697075      -8.12265024       3.43275172
C        0.94367953      -8.12316622       4.19322453
C        0.06903629      -7.68607544       5.20164362
C       -1.17845461      -8.29063235       5.37197836
C       -1.57979653      -9.33971853       4.54592465
C       -0.71969110      -9.78940980       3.54612832
C        0.52881952      -9.18751122       3.37986647
F        1.32417459      -9.66085019       2.40603595
H        3.31196531      -2.05812947       0.27364215
H        4.74463730      -3.48188386       1.70752160
H        1.88624895      -3.15385795       4.91249274
H        0.44707350      -1.71896356       3.48814765
H        4.49511410      -6.52457221       3.65340825
H        0.37850973      -6.87340826       5.85595161
H       -2.54959798      -9.80972825       4.67482747
H       -1.00547357     -10.60501267       2.89088403
C       -2.06122786      -7.83222522       6.41321527
C       -2.80055044      -7.44830924       7.28525118
Br      -3.99597254      -6.82754958       8.69525950
C       -0.00445707       0.01189536      -1.78238275
H       -0.66409135       0.67374010      -2.43557963
H        0.65740317      -0.63156657      -2.45157240
C       -0.90989263      -0.90692880      -0.91072765
C        0.90977584       0.90977584      -0.90977584
C       -0.00465871       1.77757030       0.00794375
H       -0.66225468       2.44313916      -0.64384735
H        0.64322798       2.43503045       0.67728295
C       -1.78241447       0.00034974      -0.00472694
H       -2.45427497      -0.65498947       0.64260836
H       -2.43311707       0.67328779      -0.65473579
C       -0.91132561       0.90220522       0.91563759
C       -0.01476271      -0.02253852       1.78660255
H       -0.67934791      -0.69751639       2.42135241
H        0.63392994       0.61504881       2.47327442
C        0.01484550      -1.77751727      -0.01636693
H        0.67870853      -2.42144646      -0.68295456
H       -0.62264859      -2.45592969       0.64226336
C        1.78714474       0.01002794       0.00389507
H        2.44202412       0.67113390       0.66197326
H        2.45385902      -0.65136977      -0.64189061
C        0.91606151      -0.90478549       0.90901405
