113
Properties=species:S:1:pos:R:3 pbc="F F F"
C        0.00000000       0.00000000       0.00000000
C        0.88280900       0.88280900      -0.88280900
C        2.09654270       1.36108665      -0.38438341
C        2.90544531       2.16631751      -1.18857750
C        2.49375309       2.47729256      -2.48820190
C        1.27235216       2.00694005      -2.98174162
C        0.46609487       1.20137266      -2.17626455
S        3.48913013       3.55313276      -3.50283581
O        2.59437435       4.30583797      -4.35841924
O        4.40590773       4.24604343      -2.61435276
N        4.41752348       2.47760493      -4.40875056
N        3.81504572       1.42334372      -5.19753696
C        4.76293727       0.62705861      -5.71747270
H        5.82983530       0.77608292      -5.57718016
C        4.35365242      -0.45404402      -6.55536501
S        5.54304440      -1.39046612      -7.39010568
C        4.36127543      -2.37675997      -8.13439100
C        3.09796730      -2.01566837      -7.74707199
C        3.08153329      -0.92443963      -6.84826579
H        2.42359892       1.11109473       0.62035156
H        3.85404026       2.53937665      -0.81139038
H        0.97213953       2.25036703      -3.99907871
H       -0.47241773       0.82469153      -2.57151400
H        5.40050333       2.43641563      -4.15189039
H        4.65733983      -3.16427908      -8.81079689
H        2.19377604      -0.47445760      -6.42131958
C        1.88911025      -2.65796360      -8.19397406
C        0.87669247      -3.19588586      -8.56825455
Br      -0.76030145      -4.06566067      -9.17343444
C       -0.88280900      -0.88280900      -0.88280900
C       -0.49726874      -1.14565277      -2.19909124
C       -1.30062193      -1.95248845      -3.00722994
C       -2.47874116      -2.49534772      -2.48515867
C       -2.86926343      -2.22159691      -1.17017349
C       -2.06398258      -1.41565505      -0.36409445
S       -3.54250359      -3.47742954      -3.52516557
O       -4.90792266      -3.25714860      -3.09356030
O       -3.15811285      -3.20831480      -4.89987627
N       -3.05766682      -5.05605506      -3.19015710
N       -3.02211994      -5.57497705      -1.83882942
C       -2.48096322      -6.80371370      -1.82279166
H       -2.14148551      -7.33286917      -2.70874370
C       -2.39362034      -7.48835862      -0.57299444
S       -1.87402509      -9.13659320      -0.53206567
C       -2.05021002      -9.23447976       1.16578332
C       -2.47647102      -8.04291004       1.69001013
C       -2.67372302      -7.04238730       0.71075087
H        0.42313492      -0.73472039      -2.60275663
H       -1.00662372      -2.16678730      -4.03139628
H       -3.78415574      -2.66053268      -0.77689685
H       -2.36355674      -1.22156361       0.66133256
H       -2.53935809      -5.51382229      -3.93562897
H       -1.83101448     -10.15615420       1.68331104
H       -3.01210914      -6.03178537       0.90325648
C       -2.71321118      -7.80169431       3.08978478
C       -2.91148106      -7.59967614       4.26209605
Br      -3.23206670      -7.27302984       6.15762422
C       -0.88280900       0.88280900       0.88280900
C       -0.30953695       1.59189199       1.94058381
C       -1.11284033       2.39986958       2.74763041
C       -2.48211371       2.49606682       2.48106702
C       -3.05660055       1.77609622       1.42833705
C       -2.25130491       0.96996936       0.62245781
S       -3.52756922       3.47686189       3.54066758
O       -4.83159676       2.84669200       3.58034280
O       -2.78923142       3.70676701       4.77030550
N       -3.60431856       4.95824623       2.74131418
N       -4.01812683       5.06031178       1.35748779
C       -3.87136974       6.31991925       0.91617959
H       -3.51247218       7.14305977       1.52756643
C       -4.26231170       6.61708541      -0.42442370
S       -4.26200048       8.25572770      -0.97504422
C       -4.82808275       7.81896177      -2.52813806
C       -4.99737904       6.46360887      -2.63161698
C       -4.67739378       5.76991714      -1.44195147
H        0.75548440       1.52780627       2.14202021
H       -0.67518562       2.95939369       3.57022798
H       -4.12226795       1.87048617       1.22883115
H       -2.70025612       0.42768714      -0.20415547
H       -3.08910766       5.71373769       3.18596400
H       -5.00327550       8.57704259      -3.27646045
H       -4.74392964       4.69813970      -1.30143131
C       -5.45658418       5.78337444      -3.81483790
C       -5.84116848       5.21367810      -4.80578543
Br      -6.46300878       4.29252730      -6.40806376
C        0.88280900      -0.88280900       0.88280900
C        2.01907017      -1.48487977       0.33806281
C        2.82787522      -2.29045981       1.14200529
C        2.49448758      -2.47776857       2.48699141
C        1.34967683      -1.88334549       3.02801150
C        0.54343001      -1.07771981       2.22258227
S        3.48568079      -3.55183363       3.50758428
O        2.60741085      -4.17323594       4.47798478
O        4.28214902      -4.37234389       2.61181101
N        4.55270445      -2.48850641       4.26266811
N        4.08666287      -1.33921839       5.01004514
C        5.12445272      -0.58214982       5.40086604
H        6.16468989      -0.82057442       5.19783407
C        4.85615814       0.58272318       6.18153845
S        6.16769422       1.48303806       6.85802780
C        5.11732181       2.60523947       7.60682411
C        3.80625188       2.31410255       7.33722160
C        3.64578757       1.16695996       6.52653184
H        2.28621357      -1.33120587      -0.70307734
H        3.71690409      -2.75940817       0.72849504
H        1.11064368      -2.03162887       4.07931272
H       -0.33395577      -0.60466334       2.65308022
H        5.51400733      -2.53956732       3.93523469
H        5.51791372       3.41364568       8.19958960
H        2.69906749       0.75633986       6.19791039
C        2.68244561       3.07534589       7.81802099
C        1.74125786       3.71288718       8.22069048
Br       0.21943687       4.74373754       8.87177299
