105
Properties=species:S:1:pos:R:3 pbc="F F F"
C        0.00000000       0.00000000       0.00000000
C        0.88280900       0.88280900      -0.88280900
C        2.09654270       1.36108665      -0.38438341
C        2.90544531       2.16631751      -1.18857750
C        2.49375309       2.47729256      -2.48820190
C        1.27235216       2.00694005      -2.98174162
C        0.46609487       1.20137266      -2.17626455
S        3.48913013       3.55313276      -3.50283581
O        2.59437435       4.30583797      -4.35841924
O        4.40590773       4.24604343      -2.61435276
N        4.41752348       2.47760493      -4.40875056
N        3.81504572       1.42334372      -5.19753696
C        4.76293727       0.62705861      -5.71747270
H        5.82983530       0.77608292      -5.57718016
C        4.35365242      -0.45404402      -6.55536501
S        5.54304440      -1.39046612      -7.39010568
C        4.36127543      -2.37675997      -8.13439100
C        3.09796730      -2.01566837      -7.74707199
Br       1.51486144      -2.85681112      -8.33233002
C        3.08153329      -0.92443963      -6.84826579
H        2.42359892       1.11109473       0.62035156
H        3.85404026       2.53937665      -0.81139038
H        0.97213953       2.25036703      -3.99907871
H       -0.47241773       0.82469153      -2.57151400
H        5.40050333       2.43641563      -4.15189039
H        4.65733983      -3.16427908      -8.81079689
H        2.19377604      -0.47445760      -6.42131958
C       -0.88280900      -0.88280900      -0.88280900
C       -0.38585085      -1.35768230      -2.09847960
C       -1.18910709      -2.16508890      -2.90614432
C       -2.48016766      -2.49593134      -2.48314855
C       -2.98046023      -2.00991276      -1.27066083
C       -2.17518510      -1.20387690      -0.46467008
S       -3.53601448      -3.47616094      -3.53292328
O       -4.90158886      -3.04572851      -3.31131419
O       -2.96409331      -3.43467373      -4.86753689
N       -3.30299849      -5.04286006      -2.95802043
N       -3.49126737      -5.38175080      -1.56290824
C       -3.12043520      -6.65197499      -1.33505839
H       -2.75311700      -7.32768042      -2.10230096
C       -3.26761665      -7.17326555      -0.01409121
S       -2.97558556      -8.85086254       0.28376414
C       -3.35735737      -8.70557063       1.94402154
C       -3.68210432      -7.41472697       2.26746037
Br      -4.15730372      -6.82891129       3.99583468
C       -3.63311861      -6.53444107       1.16220024
H        0.62058612      -1.11163889      -2.42328932
H       -0.80960237      -2.54352469      -3.85168024
H       -3.98392522      -2.28552189      -0.95213816
H       -2.56296094      -0.84453394       0.48370708
H       -2.76644358      -5.65053987      -3.57182590
H       -3.32128353      -9.57094673       2.58837261
H       -3.85673061      -5.47518084       1.19127342
C       -0.88280900       0.88280900       0.88280900
C       -0.35561343       1.43348389       2.05291543
C       -1.15886666       2.24108235       2.86039130
C       -2.48075363       2.49603550       2.48245842
C       -3.01063310       1.93423704       1.31616368
C       -2.20535451       1.12817021       0.51020736
S       -3.53343248       3.47613879       3.53552742
O       -4.88639776       2.97722421       3.39500960
O       -2.90282631       3.52012388       4.84335373
N       -3.39692835       5.02377086       2.88317976
N       -3.66076177       5.29050993       1.48465470
C       -3.35819493       6.56398375       1.18528990
H       -2.98896203       7.28911732       1.90501903
C       -3.58608099       7.01791083      -0.14901842
S       -3.38368512       8.69135605      -0.53235721
C       -3.83017623       8.45443641      -2.16570619
C       -4.10974268       7.13736655      -2.41773831
Br      -4.63244259       6.45364606      -4.09570832
C       -3.97293035       6.31110148      -1.27867237
H        0.67410156       1.24635212       2.34209153
H       -0.75624198       2.67815299       3.77041233
H       -4.03845079       2.15129048       1.03184401
H       -2.61722376       0.70966675      -0.40310271
H       -2.86236593       5.68139604       3.44504737
H       -3.86141378       9.29042948      -2.84798562
H       -4.14929337       5.24290631      -1.25156164
C        0.88280900      -0.88280900       0.88280900
C        1.80405138      -1.74855388       0.28940749
C        2.61248368      -2.55494147       1.09291517
C        2.49565596      -2.47932698       2.48426461
C        1.56430516      -1.62008185       3.07664681
C        0.75810931      -0.81431828       2.27130450
S        3.47969986      -3.54681831       3.51858053
O        2.70254728      -3.85390404       4.70218025
O        3.97635527      -4.61777214       2.67217651
N        4.80820435      -2.58662708       3.90904754
N        4.65596134      -1.27553254       4.50443253
C        5.84680300      -0.66235648       4.59830910
H        6.78836055      -1.10664805       4.28808978
C        5.89517091       0.63422953       5.19403202
S        7.42371691       1.38129267       5.50025973
C        6.69896646       2.76852762       6.18846761
C        5.33249058       2.67467541       6.17155576
Br       4.15818565       3.99605229       6.82824697
C        4.86418183       1.46595184       5.60712945
H        1.90460374      -1.80022590      -0.79048755
H        3.33581783      -3.22836377       0.64062570
H        1.49369149      -1.56657653       4.16131725
H        0.04969095      -0.13641524       2.73768160
H        5.67895621      -2.85319476       3.45665837
H        7.31258475       3.57318323       6.56445612
H        3.82427234       1.18326469       5.49963037
