126
Properties=species:S:1:pos:R:3 pbc="F F F"
C        1.79271303       1.79271303      -1.79271303
C        3.00644672       2.27099067      -1.29428743
C        3.81534933       3.07622153      -2.09848153
C        3.40365712       3.38719658      -3.39810592
C        2.18225618       2.91684407      -3.89164564
C        1.37599890       2.11127668      -3.08616858
S        4.39903415       4.46303678      -4.41273984
O        3.50427837       5.21574200      -5.26832326
O        5.31581176       5.15594745      -3.52425679
N        5.32742751       3.38750895      -5.31865458
N        4.72494975       2.33324775      -6.10744098
C        5.67284129       1.53696263      -6.62737672
H        6.73973933       1.68598694      -6.48708418
C        5.26355644       0.45586000      -7.46526904
S        6.45294843      -0.48056210      -8.30000970
C        5.27117945      -1.46685595      -9.04429502
C        4.00787132      -1.10576434      -8.65697602
Br       2.42476546      -1.94690710      -9.24223404
C        3.99143732      -0.01453561      -7.75816981
H        3.33350294       2.02099875      -0.28955247
H        4.76394429       3.44928068      -1.72129440
H        1.88204356       3.16027105      -4.90898273
H        0.43748629       1.73459556      -3.48141802
H        6.31040736       3.34631966      -5.06179441
H        5.56724386      -2.25437506      -9.72070092
H        3.10368007       0.43544643      -7.33122361
C       -1.79271303      -1.79271303      -1.79271303
C       -1.21363385      -2.82707235      -2.53101863
C       -2.01733308      -3.63571513      -3.33700419
C       -3.39551385      -3.40506809      -3.38837768
C       -3.97222200      -2.36129485      -2.65722905
C       -3.16684043      -1.55506909      -1.85153464
S       -4.42300764      -4.39224344      -4.45955969
O       -5.50932869      -3.55408363      -4.92493131
O       -3.54081070      -5.04181329      -5.41339200
N       -4.99767242      -5.60058229      -3.43533633
N       -5.67824687      -5.29240921      -2.19498239
C       -5.91967582      -6.41634286      -1.50116197
H       -5.65640035      -7.41329665      -1.84311345
C       -6.61638517      -6.30865337      -0.25964694
S       -7.10767088      -7.74024760       0.57552245
C       -7.83806849      -6.84970526       1.83915522
C       -7.69866564      -5.50149118       1.64107382
Br      -8.35469925      -4.17237250       2.80697935
C       -7.00444488      -5.18216615       0.45153951
H       -0.14533872      -3.01530823      -2.48340722
H       -1.57669189      -4.44627059      -3.91155689
H       -5.04792979      -2.20227378      -2.70109377
H       -3.62308328      -0.75785715      -1.27255944
H       -4.60101401      -6.52325889      -3.59424852
H       -8.32593159      -7.36213076       2.65449264
H       -6.78792253      -4.18134034       0.09891278
C       -1.79271303       1.79271303       1.79271303
C       -1.38014523       2.10068866       3.09089094
C       -2.18346686       2.90765008       3.89893545
C       -3.38892260       3.40541203       3.39462499
C       -3.80614292       3.08644177       2.09816121
C       -3.00086519       2.28047899       1.29209997
S       -4.45111682       4.38691465       4.43677929
O       -5.82093988       4.11960718       4.04779657
O       -4.02392442       4.16483883       5.80725274
N       -4.01764368       5.96811060       4.04783677
N       -4.03127349       6.45140020       2.68296479
C       -3.52382666       7.69296514       2.62038884
H       -3.17564864       8.25433774       3.48282407
C       -3.48748715       8.34593259       1.35126573
S       -3.01347277      10.00547293       1.25345033
C       -3.23644808      10.05321611      -0.44104567
C       -3.64416892       8.83731777      -0.92240369
Br      -3.99334349       8.46445498      -2.73770607
C       -3.78893703       7.85857953       0.08755496
H       -0.43884750       1.72486671       3.48033995
H       -1.86869716       3.15690204       4.90892017
H       -4.74241225       3.49066956       1.71821553
H       -3.32178110       2.05124109       0.28047767
H       -3.49251216       6.45904710       4.76696216
H       -3.05559460      10.96610163      -0.98812652
H       -4.10503829       6.83470036      -0.06938855
C        1.79271303      -1.79271303       1.79271303
C        2.19456276      -3.04748175       1.32968031
C        3.00177841      -3.85531871       2.13295527
C        3.40568279      -3.39373166       3.38954518
C        2.99272030      -2.14151736       3.85650824
C        2.18671559      -1.33549487       3.05123370
S        4.38630193      -4.44023398       4.44827486
O        4.02516497      -4.14351298       5.81966568
O        4.26452147      -5.79442870       3.93706582
N        5.96396972      -3.94409585       4.12552548
N        6.36847415      -2.55838990       4.23877443
C        7.62977823      -2.40153795       3.80586447
H        8.25638530      -3.21201625       3.44440889
C        8.21148299      -1.09947252       3.87372997
S        9.88575714      -0.88715142       3.49948748
C        9.82639046       0.79229550       3.81452357
C        8.56544292       1.18471200       4.17835208
Br       8.07324103       2.95516826       4.60201964
C        7.63863224       0.11763725       4.21407653
H        1.89174825      -3.40289904       0.34940688
H        3.32370578      -4.83136691       1.77944669
H        3.32465634      -1.79378319       4.83285781
H        1.88432385      -0.35709543       3.41208058
H        6.52171054      -4.60550317       3.59130771
H       10.71544598       1.39640346       3.71452719
H        6.59220863       0.20195695       4.48009843
C       -0.00445707       0.01189536      -1.78238275
H       -0.66409135       0.67374010      -2.43557963
H        0.65740317      -0.63156657      -2.45157240
C       -0.90989263      -0.90692880      -0.91072765
C        0.90977584       0.90977584      -0.90977584
C       -0.00465871       1.77757030       0.00794375
H       -0.66225468       2.44313916      -0.64384735
H        0.64322798       2.43503045       0.67728295
C       -1.78241447       0.00034974      -0.00472694
H       -2.45427497      -0.65498947       0.64260836
H       -2.43311707       0.67328779      -0.65473579
C       -0.91132561       0.90220522       0.91563759
C       -0.01476271      -0.02253852       1.78660255
H       -0.67934791      -0.69751639       2.42135241
H        0.63392994       0.61504881       2.47327442
C        0.01484550      -1.77751727      -0.01636693
H        0.67870853      -2.42144646      -0.68295456
H       -0.62264859      -2.45592969       0.64226336
C        1.78714474       0.01002794       0.00389507
H        2.44202412       0.67113390       0.66197326
H        2.45385902      -0.65136977      -0.64189061
C        0.91606151      -0.90478549       0.90901405
