117
Properties=species:S:1:pos:R:3 pbc="F F F"
C        0.00000000       0.00000000       0.00000000
C        0.88190827       0.88190827      -0.88190827
C        0.38221837       2.08547944      -1.37463060
C        1.18586430       2.90159807      -2.17837763
C        2.49339568       2.51541756      -2.49215728
O        3.36091697       3.25389856      -3.25146309
C        2.85139889       4.40027406      -3.93061269
C        3.94911895       4.96525003      -4.75632508
N        4.22276770       6.22477708      -5.02592207
N        5.33298851       6.21129390      -5.84467413
C        5.66561179       4.94510075      -6.02632589
O        4.80543109       4.09485180      -5.37523656
C        6.78315918       4.50206864      -6.80130799
C        7.69612212       5.26174431      -7.51710907
C        8.62142527       4.36331138      -8.10395091
C        8.22596282       3.10598258      -7.71717008
O        7.11708600       3.17750235      -6.93629801
C        2.97960191       1.29622864      -1.98512948
Cl       4.58563750       0.75590369      -2.33669689
C        2.17825583       0.47962637      -1.18417383
H       -0.63065170       2.40124907      -1.13517283
H        0.75909222       3.83473039      -2.53132382
H        2.52979365       5.15517190      -3.20392269
H        2.01841976       4.12438930      -4.58610045
H        7.68805308       6.34070596      -7.59675223
H        9.47065524       4.60741729      -8.72772572
H        2.56902036      -0.45886659      -0.80108992
C        8.88599091       1.87879935      -8.08046644
C        9.43876443       0.85103339      -8.38472714
Br      10.33255247      -0.81077723      -8.87669095
C       -0.88190827      -0.88190827      -0.88190827
C       -1.33704008      -0.39853244      -2.10675589
C       -2.14051533      -1.20245396      -2.92287072
C       -2.49167809      -2.49391314      -2.51537928
O       -3.25384783      -3.36091807      -3.25151272
C       -3.89634361      -2.86238329      -4.42355873
C       -4.73379488      -3.95416408      -4.98273510
N       -4.98191464      -4.24985893      -6.24169327
N       -5.82529019      -5.34140241      -6.22226394
C       -6.04184844      -5.64170549      -4.95348449
O       -5.39044122      -4.77719054      -4.10788767
C       -6.85099699      -6.73195854      -4.50358028
C       -7.57023344      -7.64580294      -5.25893911
C       -8.19697309      -8.53786123      -4.35385324
C       -7.82896541      -8.12301385      -3.09713622
O       -7.02221696      -7.03328103      -3.17538837
C       -2.02228770      -2.96377567      -1.27489665
Cl      -2.42122660      -4.54933771      -0.70767376
C       -1.22166425      -2.16208129      -0.45831049
H       -1.06825994       0.60159593      -2.43910620
H       -2.46345492      -0.78898253      -3.87270899
H       -3.14639665      -2.57357982      -5.16891176
H       -4.53897141      -2.00938293      -4.18055517
H       -7.62615102      -7.66003366      -6.33932659
H       -8.83404111      -9.37852562      -4.59323151
H       -0.86791638      -2.54009987       0.49677257
C       -8.23352225      -8.74747416      -1.86426028
C       -8.57233860      -9.27045968      -0.83172668
Br      -9.12017598     -10.11608303       0.83779282
C       -0.88190827       0.88190827       0.88190827
C       -1.99980780       0.33463763       1.50788299
C       -2.80931885       1.13461381       2.32190734
C       -2.50256876       2.48625965       2.51214210
O       -3.21997688       3.34207738       3.30422437
C       -4.46987119       2.89005209       3.82236235
C       -5.09368677       4.02045078       4.55655651
N       -5.82088179       3.99845033       5.65413472
N       -6.16706404       5.30842391       5.91346860
C       -5.63269308       6.04749023       4.95685511
O       -4.95160364       5.28125818       4.04265762
C       -5.74108171       7.47128841       4.87416569
C       -6.41846730       8.33854867       5.71795952
C       -6.21607064       9.65041991       5.22219701
C       -5.42840170       9.51579948       4.10491430
O       -5.14032845       8.20721010       3.88334782
C       -1.36951068       3.02030165       1.87114770
Cl      -0.93390495       4.68449672       2.05983641
C       -0.56141959       2.22368255       1.05695389
H       -2.24814352      -0.71568421       1.37331090
H       -3.66350527       0.66399636       2.79764480
H       -4.30914957       2.05992557       4.51981310
H       -5.13722570       2.58093387       3.01074994
H       -6.98740354       8.04721919       6.59088854
H       -6.59669839      10.57547205       5.63362781
H        0.30967197       2.65188081       0.56903484
C       -4.96613457      10.60065047       3.27847166
C       -4.57898584      11.50921317       2.58632595
Br      -3.95299910      12.97828221       1.46718487
C        0.88190827      -0.88190827       0.88190827
C        1.12905414      -2.20198700       0.51128728
C        1.94054942      -3.01442967       1.31086092
C        2.50772520      -2.50803175       2.48521357
O        3.32963717      -3.21681084       3.31983061
C        3.47182741      -4.61793316       3.09252506
C        4.32319833      -5.17073609       4.17675964
N        5.22128299      -6.13209302       4.12009084
N        5.71812346      -6.27133267       5.39950041
C        5.09041893      -5.38911819       6.15750130
O        4.16706105      -4.66804019       5.44041820
C        5.33544683      -5.19750949       7.55357949
C        6.21702145      -5.87853809       8.37941596
C        6.10212293      -5.31302817       9.67353646
C        5.15906408      -4.31961144       9.57043996
O        4.68726199      -4.24450077       8.29912362
C        2.24601988      -1.17245577       2.84248438
Cl       2.91222164      -0.48286049       4.28315595
C        1.43490197      -0.36067473       2.04647933
H        0.69899898      -2.60818075      -0.40140952
H        2.11425735      -4.03259706       0.97829203
H        3.96514607      -4.79402866       2.12971350
H        2.49651407      -5.11574085       3.11665459
H        6.86683680      -6.68699592       8.07167854
H        6.64379509      -5.59608561      10.56591754
H        1.24260600       0.66833276       2.33697045
C        4.72491181      -3.47075760      10.64958729
C        4.36130929      -2.75984250      11.55337317
Br       3.77339476      -1.61035292      13.01471851
