130
Properties=species:S:1:pos:R:3 pbc="F F F"
C        1.79181230       1.79181230      -1.79181230
C        1.29212240       2.99538347      -2.28453462
C        2.09576833       3.81150210      -3.08828166
C        3.40329971       3.42532158      -3.40206131
O        4.27082099       4.16380258      -4.16136712
C        3.76130291       5.31017808      -4.84051671
C        4.85902298       5.87515406      -5.66622910
N        5.13267172       7.13468110      -5.93582609
N        6.24289254       7.12119793      -6.75457815
C        6.57551582       5.85500477      -6.93622991
O        5.71533511       5.00475582      -6.28514058
C        7.69306321       5.41197266      -7.71121202
C        8.60602614       6.17164833      -8.42701309
C        9.53132930       5.27321540      -9.01385493
C        9.13586685       4.01588660      -8.62707411
Br       9.99044339       2.42698148      -9.09745492
O        8.02699003       4.08740638      -7.84620204
C        3.88950593       2.20613267      -2.89503350
Cl       5.49554152       1.66580771      -3.24660091
C        3.08815985       1.38953040      -2.09407785
H        0.27925233       3.31115309      -2.04507686
H        1.66899625       4.74463442      -3.44122785
H        3.43969767       6.06507592      -4.11382671
H        2.92832378       5.03429333      -5.49600447
H        8.59795710       7.25060998      -8.50665625
H       10.38055926       5.51732131      -9.63762974
H        3.47892438       0.45103743      -1.71099394
C       -1.79181230      -1.79181230      -1.79181230
C       -1.23183496      -2.87587685      -2.46432868
C       -2.03423519      -3.69184258      -3.26947430
C       -3.40094128      -3.42519443      -3.40454688
O       -4.26932324      -4.17605819      -4.15060927
C       -3.72631638      -5.18368967      -5.00199166
C       -4.84720228      -5.78217490      -5.77102895
N       -5.02103585      -7.03083051      -6.15131257
N       -6.21179762      -7.05957934      -6.84729166
C       -6.68861276      -5.82689430      -6.85124344
O       -5.85089639      -4.95545871      -6.19887642
C       -7.92499673      -5.43624235      -7.45500881
C       -8.83128202      -6.21754254      -8.15586301
C       -9.90240421      -5.37408702      -8.54190839
C       -9.59477815      -4.12574418      -8.05830522
Br     -10.65250145      -2.60351649      -8.25886184
O       -8.40374694      -4.15070107      -7.40615043
C       -3.94755779      -2.32561937      -2.71749493
Cl      -5.62912878      -1.93628167      -2.84253970
C       -3.14779310      -1.50915231      -1.91482269
H       -0.17185591      -3.09849766      -2.36512871
H       -1.55791084      -4.53083284      -3.76611482
H       -3.25075649      -5.96709678      -4.40074703
H       -3.00423451      -4.75141777      -5.70296929
H       -8.72350150      -7.27522711      -8.35649473
H      -10.78731911      -5.64783858      -9.10035263
H       -3.58567994      -0.66385918      -1.39141664
C       -1.79181230       1.79181230       1.79181230
C       -3.17105104       1.59544345       1.80554599
C       -3.98503287       2.39539983       2.61511938
C       -3.42087200       3.39561672       3.41419387
O       -4.13026650       4.21291504       4.25280916
C       -5.55435646       4.18291996       4.17472128
C       -6.08272949       5.21743859       5.10023806
N       -7.16760504       5.18952070       5.84605318
N       -7.21175289       6.39925166       6.50766406
C       -6.15353936       7.09098845       6.12222269
O       -5.40143059       6.40026408       5.20353685
C       -5.82026639       8.39805436       6.59792714
C       -6.51261490       9.19476508       7.49730758
C       -5.77200393      10.39257569       7.65382001
C       -4.66981260      10.26498545       6.84402950
Br      -3.32545596      11.54181809       6.64760573
O       -4.69122212       9.06958443       6.19979190
C       -2.02599682       3.57846961       3.38620567
Cl      -1.26245031       4.79907380       4.34642604
C       -1.21225378       2.78206050       2.57745381
H       -3.62350486       0.81858276       1.19339466
H       -5.05238440       2.20038088       2.60209323
H       -5.92715819       3.20155839       4.48988372
H       -5.89189485       4.40912410       3.15760263
H       -7.44303856       8.93021899       7.98196578
H       -6.01442465      11.23889588       8.28218979
H       -0.13697652       2.93664281       2.56733643
C        1.79181230      -1.79181230       1.79181230
C        3.16529279      -1.84294008       1.56380762
C        3.98059496      -2.64393919       2.37101793
C        3.42347260      -3.39730560       3.40990439
O        4.13958327      -4.19230603       4.26410139
C        5.51551365      -4.42696657       3.96951749
C        6.03838713      -5.38819739       4.97382161
N        7.22991583      -5.44140682       5.53185627
N        7.20879551      -6.52686930       6.38300381
C        6.00757422      -7.07012051       6.28905577
O        5.21677752      -6.40267410       5.38577989
C        5.57182788      -8.21128716       7.03313285
C        6.28519985      -8.97414123       7.94534649
C        5.41307235      -9.98472219       8.42060509
C        4.21666641      -9.78676149       7.77539965
Br       2.68292839     -10.82018060       8.01177079
O        4.30248626      -8.72424311       6.93386908
C        2.03428271      -3.33239705       3.62399234
Cl       1.27873057      -4.24070199       4.88851759
C        1.21882694      -2.53476772       2.81817344
H        3.61339273      -1.25906283       0.76302672
H        5.04575147      -2.64516750       2.16393955
H        6.08095008      -3.49115904       4.04649119
H        5.62988113      -4.85912008       2.96962037
H        7.31569327      -8.80894627       8.23058380
H        5.63336892     -10.75676624       9.14537516
H        0.14792012      -2.49626864       2.99676700
C       -0.00445707       0.01189536      -1.78238275
H       -0.66409135       0.67374010      -2.43557963
H        0.65740317      -0.63156657      -2.45157240
C       -0.90989263      -0.90692880      -0.91072765
C        0.90977584       0.90977584      -0.90977584
C       -0.00465871       1.77757030       0.00794375
H       -0.66225468       2.44313916      -0.64384735
H        0.64322798       2.43503045       0.67728295
C       -1.78241447       0.00034974      -0.00472694
H       -2.45427497      -0.65498947       0.64260836
H       -2.43311707       0.67328779      -0.65473579
C       -0.91132561       0.90220522       0.91563759
C       -0.01476271      -0.02253852       1.78660255
H       -0.67934791      -0.69751639       2.42135241
H        0.63392994       0.61504881       2.47327442
C        0.01484550      -1.77751727      -0.01636693
H        0.67870853      -2.42144646      -0.68295456
H       -0.62264859      -2.45592969       0.64226336
C        1.78714474       0.01002794       0.00389507
H        2.44202412       0.67113390       0.66197326
H        2.45385902      -0.65136977      -0.64189061
C        0.91606151      -0.90478549       0.90901405
