186
Properties=species:S:1:pos:R:3 pbc="F F F"
O        5.99134714       4.37112630     -10.23808352
C        5.98595473       3.47092782      -9.40041277
N        5.62815504       3.66823348      -8.08717675
C        5.09353734       4.93980903      -7.66217240
C        5.03215445       4.95993817      -6.18268220
C        5.65719790       5.72413839      -5.22161609
C        5.16007627       5.27861396      -3.97334299
C        4.26827959       4.25790880      -4.23933013
O        4.19939268       4.05399262      -5.58968013
C        3.41652505       3.41241416      -3.41047716
C        3.01219488       3.84460362      -2.13791351
C        2.20012988       3.04042767      -1.33166669
C        1.79146273       1.79146273      -1.79146273
C        2.18206639       1.34242302      -3.05020515
C        2.98824681       2.15287334      -3.85645733
C        6.41218587       2.04087665      -9.72278684
N        6.43124310       1.83783031     -11.15275814
C        6.94320714       0.69715842     -11.71983824
O        7.40183613      -0.21757311     -11.04043861
C        6.89894488       0.67820783     -13.16564663
C        7.45023046      -0.20138691     -14.07876067
C        7.06822279       0.25233749     -15.36493564
C        6.29971022       1.37627943     -15.16066790
O        6.20106444       1.65078032     -13.83346369
H        5.41962826       2.86647911      -7.50396438
H        4.09393967       5.05515499      -8.09450889
H        5.72794874       5.74620489      -8.04553646
H        6.37700641       6.51094046      -5.40100149
H        5.42547794       5.65386981      -2.99506885
H        3.31345735       4.82053834      -1.76408643
H        1.89336830       3.39945080      -0.35278245
H        1.86807499       0.36773739      -3.41429657
H        3.28737849       1.78742171      -4.83646882
H        5.70525387       1.32807741      -9.28678136
H        7.41212602       1.85855806      -9.31662740
H        6.13697367       2.60026284     -11.75882402
H        8.05531583      -1.06328184     -13.83129843
H        7.31721575      -0.19028682     -16.31853077
C        5.67743821       2.15445868     -16.20029023
C        5.15628540       2.80618380     -17.07097393
Br       4.31362538       3.85996820     -18.47879584
O       -9.80279416      -7.04671722      -3.75104558
C       -8.82209298      -7.02568318      -3.00951917
N       -7.64268498      -6.40038878      -3.34049150
C       -7.55451073      -5.60157245      -4.53943559
C       -6.13382633      -5.26024027      -4.78070822
C       -5.24757106      -5.56460113      -5.79078020
C       -4.03203270      -4.91786621      -5.46213430
C       -4.23826390      -4.26446260      -4.26279203
O       -5.51969374      -4.48417760      -3.83919408
C       -3.40988821      -3.41603426      -3.41349390
C       -2.32148372      -2.71625352      -3.95697476
C       -1.51654449      -1.90404021      -3.15163954
C       -1.79146273      -1.79146273      -1.79146273
C       -2.86546055      -2.47799175      -1.23124227
C       -3.67251475      -3.28351230      -2.04155044
C       -8.79802650      -7.72509637      -1.65272649
N      -10.14293259      -8.04491990      -1.23397905
C      -10.39705686      -8.82789208      -0.13525487
O       -9.49386182      -9.28876260       0.55792280
C      -11.80197415      -9.06028656       0.11946138
C      -12.43450087      -9.90537651       1.01227316
C      -13.82696633      -9.70576571       0.84723612
C      -13.96184490      -8.74507868      -0.12973397
O      -12.74256653      -8.35619240      -0.58654952
H       -6.95922175      -6.21484590      -2.61600410
H       -8.15296511      -4.69584248      -4.39479598
H       -7.97795988      -6.16157751      -5.38015270
H       -5.45613394      -6.17205808      -6.66075633
H       -3.11255758      -4.93170237      -6.03015664
H       -2.09541426      -2.78396724      -5.01870062
H       -0.68365303      -1.36569028      -3.59625823
H       -3.08433533      -2.39590847      -0.16986515
H       -4.50649140      -3.81569224      -1.58908538
H       -8.35261427      -7.07011753      -0.89738085
H       -8.21227905      -8.64665052      -1.72838191
H      -10.92043592      -7.75357873      -1.82204588
H      -11.93686268     -10.58123677       1.69476704
H      -14.62870799     -10.19653829       1.37978659
C      -15.21431287      -8.21496070      -0.60291354
C      -16.26325480      -7.77098690      -0.99920143
Br     -17.95930518      -7.05311880      -1.63996543
O       -4.86723404       5.38043465      10.35288828
C       -4.81328969       4.33295563       9.71104999
N       -4.75066009       4.29524306       8.33766211
C       -4.59685573       5.51585379       7.58280925
C       -4.80893881       5.21809671       6.14773929
C       -5.75048774       5.62475103       5.22771362
C       -5.40008477       5.01049578       4.00145266
C       -4.27119325       4.25192098       4.24240430
O       -3.91676858       4.36837186       5.55792499
C       -3.41670257       3.41124426       3.41146955
C       -3.35424633       3.61602621       2.02443947
C       -2.54288306       2.81281176       1.21652942
C       -1.79146273       1.79146273       1.79146273
C       -1.83951677       1.56993970       3.16523809
C       -2.64663119       2.38022800       3.97071830
C       -4.84656275       2.95723330      10.37205331
N       -4.56227090       3.07633714      11.78322350
C       -4.69780914       2.01676207      12.64563260
O       -5.05682176       0.90688856      12.26099130
C       -4.39081085       2.32720488      14.02478360
C       -4.55961233       1.58748390      15.18050799
C       -4.06251653       2.37632662      16.24665277
C       -3.61207185       3.54653097      15.67805473
O       -3.81743076       3.53302738      14.33485031
H       -4.47805285       3.43511872       7.87690018
H       -3.58663619       5.90228980       7.75467757
H       -5.31461911       6.25940819       7.94566279
H       -6.58247889       6.28891319       5.41755627
H       -5.91382411       5.10536737       3.05522512
H       -3.92670675       4.41413136       1.55724402
H       -2.50481414       2.99503367       0.14575373
H       -1.25688822       0.77316493       3.62005580
H       -2.67575954       2.19346956       5.04203992
H       -4.08953799       2.30476110       9.92581355
H       -5.83754392       2.51235928      10.23740827
H       -4.34020005       3.99439595      12.16146453
H       -4.99290682       0.59765884      15.23276675
H       -4.03123873       2.11878299      17.29543797
C       -3.00108018       4.63489923      16.39620771
C       -2.48937465       5.54640765      16.99766083
Br      -1.66199009       7.02023967      17.97015965
O        5.48766119     -10.34096806       4.77192771
C        4.42904388      -9.71843248       4.70981896
N        4.36565478      -8.34505919       4.67285130
C        5.57397873      -7.56403587       4.55750417
C        5.24415906      -6.13937744       4.79123832
C        5.61456142      -5.23032516       5.75806581
C        4.98325445      -4.00946119       5.41931757
C        4.25136448      -4.24278527       4.27136877
O        4.40033894      -5.54863419       3.89409230
C        3.41114384      -3.41157634       3.41669619
C        3.58988755      -2.01991211       3.38491234
C        2.78673766      -1.21184426       2.57364232
C        1.79146273      -1.79146273       1.79146273
C        1.59600129      -3.16991673       1.80877654
C        2.40625639      -3.97533660       2.61598449
C        3.06614381     -10.40626035       4.70344519
N        3.21829628     -11.80904518       4.39449009
C        2.17340436     -12.69413378       4.49266566
O        1.04952132     -12.33798324       4.83719706
C        2.51663291     -14.06079203       4.16537439
C        1.79657959     -15.23359392       4.29743072
C        2.61554975     -16.27445322       3.79549295
C        3.78283069     -15.67477395       3.37905290
O        3.73908561     -14.33635555       3.60986729
H        3.50206704      -7.89565172       4.39235299
H        5.98303683      -7.70863572       3.55193101
H        6.31057361      -7.92652760       5.28258888
H        6.26621222      -5.42363267       6.59910346
H        5.04969468      -3.07182756       5.95289435
H        4.36754936      -1.54877414       3.98175862
H        2.94865431      -0.13722627       2.55972096
H        0.81962227      -3.62845696       1.20202973
H        2.23998732      -5.05041237       2.62086933
H        2.41971804      -9.95789567       3.94249893
H        2.59976808     -10.29961540       5.68792800
H        4.14768140     -12.16516337       4.18321576
H        0.79982853     -15.31332803       4.71017586
H        2.37924095     -17.32717767       3.73904107
C        4.89658681     -16.35978949       2.77581081
C        5.82935756     -16.93349001       2.27059556
Br       7.33756897     -17.86111521       1.45370523
C       -0.00445707       0.01189536      -1.78238275
H       -0.66409135       0.67374010      -2.43557963
H        0.65740317      -0.63156657      -2.45157240
C       -0.90989263      -0.90692880      -0.91072765
C        0.90977584       0.90977584      -0.90977584
C       -0.00465871       1.77757030       0.00794375
H       -0.66225468       2.44313916      -0.64384735
H        0.64322798       2.43503045       0.67728295
C       -1.78241447       0.00034974      -0.00472694
H       -2.45427497      -0.65498947       0.64260836
H       -2.43311707       0.67328779      -0.65473579
C       -0.91132561       0.90220522       0.91563759
C       -0.01476271      -0.02253852       1.78660255
H       -0.67934791      -0.69751639       2.42135241
H        0.63392994       0.61504881       2.47327442
C        0.01484550      -1.77751727      -0.01636693
H        0.67870853      -2.42144646      -0.68295456
H       -0.62264859      -2.45592969       0.64226336
C        1.78714474       0.01002794       0.00389507
H        2.44202412       0.67113390       0.66197326
H        2.45385902      -0.65136977      -0.64189061
C        0.91606151      -0.90478549       0.90901405
