161
Properties=species:S:1:pos:R:3 pbc="F F F"
C        0.00000000       0.00000000       0.00000000
C        0.88193006       0.88193006      -0.88193006
C        0.36121291       1.42099957      -2.05957085
C        1.16571411       2.22513619      -2.86972723
C        2.48866577       2.47128526      -2.49359681
C        3.00730226       1.94773572      -1.30451021
C        2.19785988       1.14392553      -0.49900778
S        3.51713599       3.49861889      -3.52075399
O        2.63825593       4.36265058      -4.28479865
O        4.55154562       4.05396884      -2.66818640
C        4.27082108       2.32141866      -4.62699985
C        5.26263871       3.02994156      -5.54382242
N        5.91634837       2.13443799      -6.53108936
C        6.69139685       2.96701679      -7.46750730
C        6.80428517       1.15318042      -5.86100665
C        7.47803146       0.16770046      -6.79805988
C        6.67040172      -0.59105302      -7.67052380
C        7.22543358      -1.53294316      -8.53812697
C        8.60024921      -1.74330589      -8.54543239
C        9.41801971      -1.01153550      -7.68635819
C        8.86466483      -0.06371548      -6.81604774
H       -0.66836742       1.22684108      -2.34991008
H        0.75247792       2.65565744      -3.77975454
H        4.02808319       2.16246147      -0.99525815
H        2.59859245       0.73421646       0.42510129
H        3.47206614       1.84293232      -5.20236791
H        4.76192206       1.57686512      -3.99454270
H        6.02081369       3.55499306      -4.94778848
H        4.70912997       3.80471481      -6.09041063
H        6.04276230       3.70699906      -7.95052072
H        7.11658687       2.36912731      -8.28006685
H        7.50629553       3.50117639      -6.96515320
H        6.21497050       0.53189358      -5.17612567
H        7.52424261       1.68813476      -5.23583194
H        5.59207283      -0.43515517      -7.68005527
H        6.58395630      -2.09962283      -9.20735001
H        9.03708306      -2.47644348      -9.21900295
H       10.49079248      -1.18776957      -7.70131212
C        9.78757227       0.64030478      -5.96387562
C       10.56050725       1.22992174      -5.25018146
Br      11.81027775       2.18328251      -4.09619838
C       -0.88193006      -0.88193006      -0.88193006
C       -0.72297078      -0.85040556      -2.26840698
C       -1.52970948      -1.65308317      -3.07778488
C       -2.49514341      -2.47194550      -2.48645893
C       -2.64380746      -2.51948115      -1.09625958
C       -1.83436235      -1.71398784      -0.29244300
S       -3.52341810      -3.49975620      -3.51333457
O       -2.80408108      -3.73053286      -4.75109121
O       -3.97060312      -4.60997000      -2.69312774
C       -4.92282213      -2.44770507      -3.84871239
C       -5.96140733      -3.20820838      -4.66678697
N       -7.15238596      -2.39966925      -5.02982051
C       -7.97325845      -3.18292175      -5.96974075
C       -7.94642300      -2.04344379      -3.82860545
C       -9.16003096      -1.17602492      -4.10773592
C       -8.97543588       0.03398660      -4.80842323
C      -10.04591977       0.88926704      -5.07396466
C      -11.32360476       0.55730526      -4.63607622
C      -11.52941932      -0.62906569      -3.93435739
C      -10.45782446      -1.49095748      -3.66821516
H        0.02858680      -0.21146176      -2.72550878
H       -1.39355048      -1.63698792      -4.15735149
H       -3.37494632      -3.17834936      -0.63250713
H       -1.94858176      -1.74754076       0.78841489
H       -4.55927694      -1.56839705      -4.38969238
H       -5.31641344      -2.14117119      -2.87574525
H       -6.26879178      -4.11892882      -4.13587463
H       -5.47195329      -3.54069563      -5.59160650
H       -7.38461566      -3.46541443      -6.85025199
H       -8.81650681      -2.59813330      -6.35114092
H       -8.36398864      -4.09833865      -5.51029784
H       -7.32941370      -1.45113133      -3.14244472
H       -8.20625978      -2.95620917      -3.28574037
H       -7.98148201       0.30647622      -5.16196714
H       -9.88076605       1.81214181      -5.62305924
H      -12.16044462       1.22074326      -4.83994118
H      -12.53311042      -0.87492311      -3.59630151
C      -10.76684348      -2.69068975      -2.93421944
C      -11.02564691      -3.69546553      -2.31949802
Br     -11.44411017      -5.32010298      -1.32554548
C       -0.88193006       0.88193006       0.88193006
C       -2.24195068       0.59319004       1.00664260
C       -3.05167865       1.39927119       1.80962768
C       -2.48868442       2.49358227       2.47128115
C       -1.12244880       2.77409996       2.36299944
C       -0.31821368       1.96453750       1.55804200
S       -3.51561621       3.52193894       3.49895372
O       -4.64700802       2.71860715       3.92008999
O       -2.64620267       4.15375146       4.47374673
C       -4.08756359       4.76988275       2.36179325
C       -4.93342193       5.80050742       3.10247334
N       -5.48903298       6.86426026       2.22858249
C       -6.43129731       7.67030271       3.02432093
C       -4.41303459       7.72542604       1.68001162
C       -4.89328441       8.81334533       0.73716206
C       -5.68028560       8.44250132      -0.37291441
C       -6.13137281       9.39114845      -1.29190387
C       -5.79714878      10.73096443      -1.12573750
C       -5.01347156      11.12051311      -0.04114227
C       -4.56106533      10.17149463       0.88443713
H       -2.67716524      -0.25854760       0.48976610
H       -4.10860267       1.16303838       1.91624885
H       -0.67672597       3.60825715       2.90081970
H        0.74383724       2.18093706       1.47060781
H       -4.66759404       4.27023415       1.57953818
H       -3.19225689       5.21838523       1.92268776
H       -4.35474004       6.24679914       3.92205605
H       -5.76887456       5.26414492       3.57123593
H       -7.21737576       7.03469361       3.44821271
H       -6.94900442       8.41072818       2.40604844
H       -5.93146313       8.19302454       3.84813745
H       -3.72524947       7.11732087       1.08041941
H       -3.81748051       8.12593437       2.50479444
H       -5.95437893       7.39757107      -0.51497707
H       -6.74367731       9.08281812      -2.13481196
H       -6.14562012      11.47342982      -1.83940741
H       -4.75817134      12.17094406       0.07521964
C       -3.75469800      10.66761006       1.96944461
C       -3.07936536      11.08310673       2.87813836
Br      -1.98740961      11.75492971       4.34741932
C        0.88193006      -0.88193006       0.88193006
C        1.46974863      -2.02807176       0.34396293
C        2.27405081      -2.83823379       1.14829292
C        2.47144379      -2.49408617       2.48801788
C        1.89885689      -1.33600673       3.02468457
C        1.09515716      -0.53034112       2.21529491
S        3.49873999      -3.52127671       3.51649217
O        4.40933366      -4.23447340       2.64189809
O        3.99934688      -2.68387714       4.59047683
C        2.33344551      -4.68205046       4.20374363
C        3.04001214      -5.60697845       5.18941210
N        2.15554208      -6.63795283       5.78838082
C        2.99278862      -7.57260341       6.56052892
C        1.13030847      -6.02223293       6.66593085
C        0.15390052      -7.00617536       7.28371592
C       -0.55579820      -7.87585656       6.42981414
C       -1.48731150      -8.78569997       6.93222892
C       -1.73631908      -8.83914640       8.29954840
C       -1.05347768      -7.98390621       9.16241387
C       -0.11616615      -7.07123842       8.66192483
H        1.31346687      -2.29359617      -0.69867931
H        2.74253958      -3.72320686       0.72214346
H        2.07538601      -1.05074412       4.05967268
H        0.64740680       0.36965827       2.62995909
H        1.89484756      -5.24718464       3.37533417
H        1.55708560      -4.08560825       4.69063602
H        3.52568482      -5.01868767       5.97922274
H        3.84582927      -6.11494136       4.64348479
H        3.76468664      -8.01525233       5.92034311
H        2.40706827      -8.41388801       6.94482475
H        3.48868885      -7.07931366       7.40462262
H        0.50625555      -5.33833904       6.07839516
H        1.62610926      -5.40342763       7.41867242
H       -0.36913596      -7.84944326       5.35666563
H       -2.01575228      -9.45171108       6.25572468
H       -2.46156734      -9.54573757       8.69547230
H       -1.25958600      -8.03519960      10.22872144
C        0.53616486      -6.22675473       9.62883307
C        1.08249209      -5.51949965      10.43861872
Br       1.96585701      -4.37592799      11.74797364
