154
Properties=species:S:1:pos:R:3 pbc="F F F"
C        1.78793462       1.78793462      -1.78793462
C        2.60533878       2.75948358      -1.22616548
C        3.39071244       3.54932390      -2.06461096
C        3.34038329       3.32748612      -3.43616887
N        2.55499346       2.38254280      -4.00489431
C        1.79138436       1.63926632      -3.16624694
S        4.33149604       4.32560477      -4.52389514
C        5.06562296       2.98983736      -5.53353266
H        4.25376591       2.47275355      -6.05719678
C        6.01167889       3.59270469      -6.56692011
C        5.84541834       1.98834894      -4.66587507
O        6.41643390       2.31843340      -3.63037751
N        5.88120359       0.71934479      -5.23515026
C        6.58993933      -0.41095859      -4.77455550
C        7.38871152      -0.42165800      -3.62867666
C        8.07965895      -1.57865307      -3.25148407
C        7.97939109      -2.73709553      -4.01759427
C        7.18174819      -2.73301209      -5.15734403
C        6.48766652      -1.58184798      -5.53716269
H        2.64415009       2.90941531      -0.15112818
H        4.04391490       4.30974236      -1.64794721
H        1.16411023       0.89947564      -3.65590998
H        6.84506605       4.12378473      -6.09178072
H        5.48934058       4.28878525      -7.23188609
H        6.45117637       2.80732769      -7.19238513
H        5.33237158       0.58272912      -6.07494751
H        7.50173572       0.45691076      -3.00084777
H        8.69923315      -1.56769390      -2.35785816
H        8.52390424      -3.62877446      -3.71931530
H        5.87460398      -1.60440954      -6.43369388
C        7.07515593      -3.92575295      -5.95709858
C        6.98588492      -4.92467342      -6.62689301
Br       6.84154124      -6.53984333      -7.70989396
C       -1.78793462      -1.78793462      -1.78793462
C       -2.15442074      -3.06176710      -1.37479999
C       -2.95478098      -3.83920509      -2.21066123
C       -3.37219869      -3.30665442      -3.42518516
N       -3.03140149      -2.06552780      -3.84550129
C       -2.24054160      -1.33781317      -3.01854285
S       -4.39084942      -4.28227883      -4.50786771
C       -5.67885964      -3.03716266      -4.87297067
H       -5.20264933      -2.19447274      -5.38659416
C       -6.72930859      -3.64558601      -5.79640909
C       -6.36706826      -2.54233738      -3.59023671
O       -6.50847921      -3.25567855      -2.60108705
N       -6.86049674      -1.24863398      -3.72656791
C       -7.63494896      -0.52051992      -2.79806735
C       -8.03147698      -1.01210067      -1.55215254
C       -8.82067760      -0.23493803      -0.69687433
C       -9.22233346       1.04218789      -1.07974425
C       -8.82650786       1.53815994      -2.31773221
C       -8.03652327       0.76793873      -3.17439669
H       -1.83210251      -3.45681953      -0.41577154
H       -3.26100382      -4.83502939      -1.90557126
H       -1.97564586      -0.35230269      -3.39154730
H       -7.23690223      -4.49669010      -5.32703917
H       -6.28783710      -3.98135854      -6.74081628
H       -7.50348507      -2.90863645      -6.03876767
H       -6.63661181      -0.76563341      -4.58780298
H       -7.74698694      -2.00247668      -1.21003063
H       -9.12241537      -0.63516378       0.26818174
H       -9.83939305       1.63578957      -0.41084161
H       -7.74432989       1.17760487      -4.13716331
C       -9.24025381       2.85660334      -2.72285108
C       -9.58676605       3.96079968      -3.06213814
Br     -10.14704703       5.74619178      -3.61073661
C       -1.78793462       1.78793462       1.78793462
C       -2.72413161       1.22320280       2.64365342
C       -3.51532568       2.06150312       3.42781850
C       -3.32994276       3.43642925       3.33766626
N       -2.41971434       4.00826816       2.51444808
C       -1.67450681       3.16916185       1.75322896
S       -4.33052653       4.52391932       4.32655011
C       -3.00312114       5.58497119       5.00090065
H       -2.51998729       6.10043700       4.16329195
C       -3.60843956       6.62685659       5.93600753
C       -1.96065696       4.76276052       5.77622487
O       -2.24983017       3.73429207       6.38112257
N       -0.70612140       5.36421614       5.76536110
C        0.45289940       4.95020299       6.45623264
C        0.51279091       3.82573912       7.28278198
C        1.69591116       3.49528553       7.95311558
C        2.83153313       4.28721733       7.80420563
C        2.77843818       5.40574980       6.97876851
C        1.60099994       5.73889300       6.30508818
H       -2.84552089       0.14610602       2.71306667
H       -4.24832844       1.64284916       4.11042688
H       -0.96333841       3.66091721       1.09524023
H       -4.10626447       6.16008608       6.79428095
H       -4.33409263       7.26069783       5.41522147
H       -2.82859703       7.28273179       6.33956036
H       -0.60473835       6.19285407       5.19245578
H       -0.34635251       3.17930211       7.43383963
H        1.72324362       2.61779339       8.59484763
H        3.74383950       4.02527125       8.33301332
H        1.58535050       6.61974419       5.66949465
C        3.94731906       6.23199769       6.82182294
C        4.92625680       6.92398029       6.69038102
Br       6.50911633       8.04285764       6.47785055
C        1.78793462      -1.78793462       1.78793462
C        2.48713247      -1.24589444       2.85796093
C        3.28711667      -2.08190137       3.63562926
C        3.34647221      -3.43515261       3.32241346
N        2.66919730      -3.98583338       2.28739989
C        1.91071618      -3.14633013       1.53985130
S        4.36309348      -4.51862145       4.29928104
C        3.14770828      -5.85363784       4.58764685
H        2.87998833      -6.28648400       3.61724391
C        3.77860952      -6.93962547       5.45306869
C        1.88448221      -5.32696610       5.28819404
O        1.91092678      -4.38235892       6.07195911
N        0.76111632      -6.08970677       4.98487555
C       -0.53636818      -5.96395563       5.52594878
C       -0.89786282      -5.01172849       6.48186452
C       -2.20213436      -4.96754338       6.98708093
C       -3.15838488      -5.87651942       6.54175529
C       -2.80466269      -6.82410321       5.58663961
C       -1.50501818      -6.87116354       5.07683587
H        2.41754046      -0.18894995       3.09820317
H        3.83666406      -1.68253794       4.48240248
H        1.39109316      -3.61802591       0.71037678
H        4.06580259      -6.55564737       6.43918155
H        4.66543599      -7.36939801       4.97517792
H        3.06891513      -7.75689374       5.62508031
H        0.88036002      -6.81800036       4.29168782
H       -0.18768383      -4.28423284       6.86294524
H       -2.46482905      -4.22117056       7.73305590
H       -4.16697716      -5.83745798       6.94396426
H       -1.25403892      -7.62348380       4.33444345
C       -3.78655824      -7.76994826       5.12311154
C       -4.60889576      -8.56209349       4.73490678
Br      -5.93854599      -9.84292533       4.10721252
C       -0.00445707       0.01189536      -1.78238275
H       -0.66409135       0.67374010      -2.43557963
H        0.65740317      -0.63156657      -2.45157240
C       -0.90989263      -0.90692880      -0.91072765
C        0.90977584       0.90977584      -0.90977584
C       -0.00465871       1.77757030       0.00794375
H       -0.66225468       2.44313916      -0.64384735
H        0.64322798       2.43503045       0.67728295
C       -1.78241447       0.00034974      -0.00472694
H       -2.45427497      -0.65498947       0.64260836
H       -2.43311707       0.67328779      -0.65473579
C       -0.91132561       0.90220522       0.91563759
C       -0.01476271      -0.02253852       1.78660255
H       -0.67934791      -0.69751639       2.42135241
H        0.63392994       0.61504881       2.47327442
C        0.01484550      -1.77751727      -0.01636693
H        0.67870853      -2.42144646      -0.68295456
H       -0.62264859      -2.45592969       0.64226336
C        1.78714474       0.01002794       0.00389507
H        2.44202412       0.67113390       0.66197326
H        2.45385902      -0.65136977      -0.64189061
C        0.91606151      -0.90478549       0.90901405
