146
Properties=species:S:1:pos:R:3 pbc="F F F"
C        1.79162242       1.79162242      -1.79162242
C        1.63336600       3.17395591      -1.76339609
C        2.44053789       3.97778789      -2.57072441
C        3.42834204       3.41123703      -3.39387184
C        3.55835294       2.01465585      -3.42348351
C        2.74482621       1.20736403      -2.62299611
C        4.31406329       4.27843316      -4.26988991
N        4.81442484       5.46164357      -3.56674131
C        5.85867628       5.22931419      -2.57568624
C        4.24369540       6.69472242      -3.88255672
O        3.34530795       6.81849546      -4.71572940
C        4.61785215       7.92271622      -3.14957030
C        3.57026130       8.71980015      -2.66137057
C        3.85569932       9.90131082      -1.97974041
Br       2.44125869      10.97305682      -1.32995749
C        5.17639913      10.30126930      -1.77968396
C        6.21776790       9.52515270      -2.29184382
C        5.93366444       8.35162973      -2.99059845
F        6.95757933       7.65776120      -3.50656109
H        0.88589830       3.63658087      -1.12435171
H        2.29521798       5.05595080      -2.55151182
H        4.29580254       1.54418792      -4.07047447
H        2.86143921       0.12750720      -2.65681805
H        3.74406115       4.55668890      -5.16325819
H        5.18971840       3.71324376      -4.61259500
H        6.82437306       5.22967216      -3.08998099
H        5.71826623       4.25564377      -2.09684171
H        5.85160465       5.99037829      -1.79465665
H        2.53877059       8.41463575      -2.82802258
H        5.40206821      11.21954466      -1.24231249
H        7.25037385       9.83399057      -2.16034610
C       -1.79162242      -1.79162242      -1.79162242
C       -1.31117116      -3.01762655      -2.24192029
C       -2.11918072      -3.82169403      -3.04817544
C       -3.42143360      -3.42076484      -3.39125248
C       -3.87974439      -2.17238040      -2.94436750
C       -3.06888656      -1.36150363      -2.14479616
C       -4.30844485      -4.29176119      -4.26218031
N       -4.26559025      -5.70322824      -3.87399123
C       -4.96483202      -6.05521655      -2.64362813
C       -3.55075321      -6.58002147      -4.69019987
O       -2.96096410      -6.21189170      -5.70667701
C       -3.37194778      -7.99958975      -4.31860114
C       -2.06673784      -8.51424192      -4.37045225
C       -1.83372194      -9.85083378      -4.05219483
Br      -0.07547837     -10.53939668      -4.12939794
C       -2.88882426     -10.68468734      -3.68384080
C       -4.19097988     -10.18166390      -3.66212064
C       -4.42877385      -8.84879172      -3.99832704
F       -5.69670132      -8.41486946      -4.01033083
H       -0.31262439      -3.35597534      -1.97823115
H       -1.72523710      -4.77031639      -3.40712710
H       -4.87346359      -1.82177274      -3.21522860
H       -3.44150265      -0.39876435      -1.80549746
H       -4.00292186      -4.15557294      -5.30551345
H       -5.35483636      -3.96982873      -4.19089207
H       -6.01496794      -6.24080914      -2.88824913
H       -4.91356584      -5.22935543      -1.92783043
H       -4.53080274      -6.93623499      -2.16960187
H       -1.24428573      -7.86715471      -4.66998848
H       -2.70882193     -11.72650143      -3.42860201
H       -5.02475088     -10.82418493      -3.39577470
C       -1.79162242       1.79162242       1.79162242
C       -3.17258236       1.61999622       1.77813942
C       -3.97646192       2.42763126       2.58495701
C       -3.40789146       3.39577711       3.42978235
C       -2.01556640       3.56721599       3.41370990
C       -1.20954237       2.76602961       2.59961437
C       -4.27427580       4.27359668       4.31451387
N       -5.32854146       3.51884405       4.99542421
C       -4.90119891       2.66488886       6.09758893
C       -6.63473538       3.65979737       4.52644179
O       -6.92502393       4.38222799       3.57228088
C       -7.74196981       2.85851436       5.08965450
C       -8.57848972       2.19478294       4.17815936
C       -9.65309485       1.43963065       4.64402505
Br     -10.77908319       0.55317068       3.41201913
C       -9.90702802       1.33895867       6.01136570
C       -9.09428906       2.02385500       6.91662035
C       -8.02921536       2.79536811       6.45130915
F       -7.29994234       3.47466511       7.34729416
H       -3.63476832       0.86825541       1.14380715
H       -5.05585844       2.29431894       2.55250322
H       -1.54734496       4.32653235       4.03658763
H       -0.13260377       2.91104784       2.60211285
H       -4.69340437       5.07481338       3.69579049
H       -3.66851258       4.75431694       5.09272765
H       -4.86477347       3.27254553       7.00670721
H       -3.90098864       2.26614694       5.90361613
H       -5.57622157       1.82031250       6.24010552
H       -8.38836416       2.28304983       3.11001493
H      -10.74108897       0.74490686       6.37792954
H       -9.29152771       1.97018361       7.98299919
C        1.79162242      -1.79162242       1.79162242
C        2.12530922      -1.37015601       3.07525278
C        2.93183190      -2.17800327       3.87921501
C        3.39143704      -3.42337225       3.41864162
C        3.06105991      -3.82100002       2.11443237
C        2.26143725      -3.00939826       1.30435084
C        4.26349348      -4.31031343       4.28857945
N        3.78122535      -4.39264040       5.66894398
C        2.58269621      -5.19437601       5.88660448
C        4.48558220      -3.68920191       6.64619043
O        5.47999468      -3.00934468       6.39019344
C        4.00971610      -3.63569037       8.04473220
C        3.93550915      -2.36940579       8.64651708
C        3.51437613      -2.25258076       9.96979366
Br       3.42204339      -0.54595674      10.77627288
C        3.16720838      -3.38575212      10.70439189
C        3.27042567      -4.64783341      10.11650533
C        3.70951596      -4.76849537       8.79788128
F        3.83934217      -5.99915738       8.28340207
H        1.77023653      -0.41744647       3.45914788
H        3.19894293      -1.82910959       4.87462807
H        3.42373762      -4.76756892       1.71915840
H        2.01331392      -3.33477609       0.29767445
H        5.28940344      -3.92797226       4.24663253
H        4.28743946      -5.33384134       3.89427636
H        2.88795133      -6.23660188       6.01947300
H        1.92095789      -5.13226082       5.01753299
H        2.02233246      -4.85562641       6.75868072
H        4.21828200      -1.48548714       8.07765979
H        2.83193038      -3.29677971      11.73521528
H        3.02178641      -5.54051278      10.68241133
C       -0.00445707       0.01189536      -1.78238275
H       -0.66409135       0.67374010      -2.43557963
H        0.65740317      -0.63156657      -2.45157240
C       -0.90989263      -0.90692880      -0.91072765
C        0.90977584       0.90977584      -0.90977584
C       -0.00465871       1.77757030       0.00794375
H       -0.66225468       2.44313916      -0.64384735
H        0.64322798       2.43503045       0.67728295
C       -1.78241447       0.00034974      -0.00472694
H       -2.45427497      -0.65498947       0.64260836
H       -2.43311707       0.67328779      -0.65473579
C       -0.91132561       0.90220522       0.91563759
C       -0.01476271      -0.02253852       1.78660255
H       -0.67934791      -0.69751639       2.42135241
H        0.63392994       0.61504881       2.47327442
C        0.01484550      -1.77751727      -0.01636693
H        0.67870853      -2.42144646      -0.68295456
H       -0.62264859      -2.45592969       0.64226336
C        1.78714474       0.01002794       0.00389507
H        2.44202412       0.67113390       0.66197326
H        2.45385902      -0.65136977      -0.64189061
C        0.91606151      -0.90478549       0.90901405
