129
Properties=species:S:1:pos:R:3 pbc="F F F"
C        0.00000000       0.00000000       0.00000000
C        0.88290224       0.88290224      -0.88290224
C        1.83910113       1.70697078      -0.29316142
C        2.64476254       2.50771571      -1.09946151
C        2.48900066       2.47677772      -2.48669207
C        1.52840080       1.65170560      -3.07954583
O        1.48607629       1.71472845      -4.44618989
C        0.45794287       0.96627147      -5.09119904
C        0.55845024       1.17934236      -6.59830557
O       -0.44210983       0.40355240      -7.27893245
C       -1.65082211       1.00172792      -7.40819360
O       -1.94666518       2.12084703      -7.02395228
C       -2.59677277       0.10262888      -8.09707542
C       -3.76133073       0.64777428      -8.62544769
N       -4.70955019      -0.07881704      -9.26839823
C       -4.48552761      -1.41036320      -9.37533725
C       -3.35804419      -2.04130888      -8.87004294
C       -2.39428149      -1.27514231      -8.22127856
C        0.72150460       0.85052301      -2.27015020
H        1.96303687       1.73182965       0.78607771
H        3.39340819       3.15575585      -0.65123363
H        3.12006818       3.10422135      -3.11217909
H       -0.52984939       1.28791472      -4.73977034
H        0.57314015      -0.10483906      -4.88243046
H        1.53719983       0.84090046      -6.95700157
H        0.49558980       2.24286699      -6.86072028
H       -3.97491633       1.71212918      -8.55038721
H       -5.26517279      -1.96434484      -9.89116385
H       -1.50628444      -1.74695941      -7.81058775
H       -0.03289901       0.19542773      -2.69082846
C       -3.18902332      -3.46485535      -9.00623171
C       -3.04746834      -4.65707553      -9.12028979
Br      -2.81858591      -6.58479471      -9.30471208
C       -0.88290224      -0.88290224      -0.88290224
C       -1.87731047      -0.29790925      -1.66401362
C       -2.67805237      -1.10359804      -2.47028934
C       -2.47719501      -2.48522512      -2.49005032
C       -1.48091796      -3.07364569      -1.70508858
O       -1.38889756      -4.43411463      -1.82398243
C       -0.45423343      -5.09073811      -0.97044184
C       -0.51242164      -6.59258614      -1.23109039
O        0.44970868      -7.27798823      -0.41209547
C        0.02188769      -7.61060213       0.82961503
O       -1.08769998      -7.40099716       1.29056301
C        1.09986284      -8.28307882       1.58028445
C        0.76245533      -8.99808267       2.72373609
N        1.66553015      -9.64664281       3.50108166
C        2.96323687      -9.56449442       3.12181111
C        3.39234280      -8.86578106       2.00274838
C        2.44768981      -8.21464213       1.21509756
C       -0.67993047      -2.26498428      -0.89726307
H       -2.03469050       0.77717416      -1.65127247
H       -3.45794736      -0.65925315      -3.08319716
H       -3.10529616      -3.11034354      -3.12082891
H       -0.68875604      -4.89119211       0.08211248
H        0.56548443      -4.74094697      -1.17526900
H       -0.25942722      -6.79822780      -2.27744685
H       -1.52522265      -6.98866065      -1.08529377
H       -0.26948359      -9.07778888       3.05967241
H        3.66151750     -10.09043123       3.76726752
H        2.75949233      -7.65486634       0.33803011
H        0.10462620      -2.68191576      -0.27606762
C        4.79073431      -8.80720592       1.66411857
C        5.96188720      -8.75814923       1.38051610
Br       7.85554236      -8.67882873       0.92195490
C       -0.88290224       0.88290224       0.88290224
C       -1.97717345       0.32310828       1.53895160
C       -2.77799177       1.12835794       2.34559005
C       -2.47762880       2.48422560       2.49061605
C       -1.38093817       3.04756227       1.83115178
O       -1.19825959       4.38376458       2.06497046
C       -0.15228028       5.02490308       1.33823001
C       -0.11978775       6.50316293       1.71314750
O        0.95286140       7.16815421       1.02508221
C        0.65153411       7.62493177      -0.21429824
O       -0.43009074       7.53945304      -0.77140966
C        1.83291593       8.26275031      -0.82690286
C        1.64191261       9.08513378      -1.93132993
N        2.64979918       9.71514297      -2.58531279
C        3.90335697       9.50160576      -2.11880235
C        4.18866927       8.68988652      -1.03052737
C        3.13843699       8.05987674      -0.36958498
C       -0.57997183       2.23945279       1.02275319
H       -2.21218596      -0.73203912       1.42864198
H       -3.63516112       0.70366805       2.86156850
H       -3.10616493       3.10916357       3.12114011
H       -0.31598698       4.92322598       0.25862270
H        0.81908418       4.58046731       1.58934841
H        0.06322774       6.60988069       2.78844892
H       -1.08557189       6.98868302       1.52492215
H        0.64889244       9.27177717      -2.33528466
H        4.68804192      10.01633926      -2.66665112
H        3.33678695       7.41356531       0.48056554
H        0.28046491       2.63713325       0.49668884
C        5.54730795       8.49473723      -0.59507625
C        6.68516785       8.33129971      -0.23038593
Br       8.52499107       8.06703505       0.35928748
C        0.88290224      -0.88290224       0.88290224
C        2.05393611      -1.42635695       0.35894026
C        2.85859398      -2.22736360       1.16598218
C        2.48710848      -2.47671136       2.48865061
C        1.31113647      -1.93353616       3.01497960
O        1.07023711      -2.25275245       4.32400507
C       -0.16525710      -1.80399040       4.87668008
C       -0.26163010      -2.27260707       6.32512121
O       -1.48089944      -1.79960267       6.92167178
C       -2.56408086      -2.59100459       6.73217568
O       -2.58586312      -3.65235876       6.13163848
C       -3.75431110      -1.99137875       7.36586388
C       -4.86613265      -2.79792106       7.58010283
N       -6.01971435      -2.35764224       8.14210311
C       -6.06384034      -1.05017123       8.49311555
C       -5.00736532      -0.17032712       8.30772808
C       -3.83051408      -0.64554619       7.73682266
C        0.50567835      -1.13172605       2.20477341
H        2.34576525      -1.23270932      -0.66968576
H        3.77387692      -2.65810166       0.76841908
H        3.11837240      -3.10323433       3.11486189
H       -1.01052537      -2.20433663       4.30402440
H       -0.21825200      -0.70805429       4.86092926
H        0.57064513      -1.85869107       6.90576567
H       -0.16752809      -3.36295561       6.40374954
H       -4.86597666      -3.85028875       7.30328798
H       -7.00236193      -0.72796837       8.93603977
H       -2.99185323       0.02537950       7.57457663
H       -0.41223018      -0.68996072       2.57562664
C       -5.12633494       1.21255489       8.69124287
C       -5.22597201       2.37071857       9.01243650
Br      -5.38707671       4.24337128       9.53177945
