142
Properties=species:S:1:pos:R:3 pbc="F F F"
C        1.79280627       1.79280627      -1.79280627
C        2.74900515       2.61687481      -1.20306544
C        3.55466656       3.41761974      -2.00936553
C        3.39890468       3.38668174      -3.39659609
C        2.43830482       2.56160962      -3.98944985
O        2.39598031       2.62463248      -5.35609392
C        1.36784689       1.87617549      -6.00110306
C        1.46835426       2.08924639      -7.50820960
O        0.46779419       1.31345643      -8.18883647
C       -0.74091809       1.91163195      -8.31809762
O       -1.03676115       3.03075105      -7.93385630
C       -1.68686875       1.01253290      -9.00697944
C       -2.85142670       1.55767830      -9.53535171
N       -3.79964617       0.83108699     -10.17830225
C       -3.57562359      -0.50045917     -10.28524128
C       -2.44814017      -1.13140485      -9.77994697
Br      -2.22685057      -2.99517481      -9.95825131
C       -1.48437746      -0.36523828      -9.13118258
C        1.63140862       1.76042703      -3.18005423
H        2.87294090       2.64173368      -0.12382631
H        4.30331222       4.06565987      -1.56113765
H        4.02997220       4.01412538      -4.02208311
H        0.38005463       2.19781874      -5.64967436
H        1.48304417       0.80506496      -5.79233449
H        2.44710385       1.75080449      -7.86690560
H        1.40549382       3.15277101      -7.77062430
H       -3.06501230       2.62203320      -9.46029124
H       -4.35526876      -1.05444082     -10.80106787
H       -0.59638042      -0.83705539      -8.72049177
H        0.87700502       1.10533175      -3.60073248
C       -1.79280627      -1.79280627      -1.79280627
C       -2.79029986      -1.20830326      -2.57034229
C       -3.59104312      -2.01397952      -3.37662918
C       -3.38711000      -3.39510006      -3.39997246
C       -2.38773112      -3.98303510      -2.61859808
O       -2.29290670      -5.34302008      -2.74077992
C       -1.35483104      -5.99945213      -1.89084228
C       -1.41021603      -7.50083536      -2.15475886
O       -0.44468752      -8.18590563      -1.33949394
C       -0.86894308      -8.52229201      -0.09757639
O       -1.97795485      -8.31624213       0.36635078
C        0.21224574      -9.19402026       0.64913093
C       -0.12095535      -9.91236791       1.79171995
N        0.78534039     -10.56063605       2.56555258
C        2.08199605     -10.47469262       2.18353806
C        2.50698713      -9.77248284       1.06509376
Br       4.33663652      -9.69064659       0.61778414
C        1.55908425      -9.12170679       0.28105571
C       -1.58674549      -3.17438917      -1.81075523
H       -2.95007920      -0.13361051      -2.55481118
H       -4.37332592      -1.57001817      -3.98676564
H       -4.01522396      -4.02021245      -4.03074428
H       -1.58741985      -5.80281627      -0.83731162
H       -0.33637251      -5.64689094      -2.09718017
H       -1.15912769      -7.70353902      -3.20214722
H       -2.42178684      -7.89953066      -2.00757164
H       -1.15194821      -9.99516946       2.12980553
H        2.78292295     -11.00050382       2.82622258
H        1.86763441      -8.55924623      -0.59544414
H       -0.79984419      -3.59094542      -1.19227964
C       -1.79280627       1.79280627       1.79280627
C       -2.78879778       1.20806265       2.57208498
C       -3.58954037       2.01374502       3.37836644
C       -3.38710464       3.39511423       3.39996364
C       -2.38923586       3.98328772       2.61684072
O       -2.29577653       5.34351021       2.73741996
C       -1.35936193       6.00003751       1.88572600
C       -1.41611163       7.50164891       2.14804970
O       -0.45223761       8.18688286       1.33096662
C       -0.87823142       8.52143219       0.08914787
O       -1.98752562       8.31364955      -0.37332897
C        0.20139299       9.19352712      -0.65949053
C       -0.13385821       9.91024706      -1.80250196
N        0.77086933      10.55865937      -2.57804697
C        2.06803893      10.47456541      -2.19736797
C        2.49503562       9.77405779      -1.07862022
Br       4.32526570       9.69473004      -0.63323841
C        1.54871500       9.12310300      -0.29282116
C       -1.58824933       3.17463424       1.80900632
H       -2.94740905       0.13317810       2.55791374
H       -4.37066070       1.56959535       3.98985370
H       -4.01521236       4.02022955       4.03073877
H       -1.59289401       5.80198406       0.83266966
H       -0.34028863       5.64882599       2.09132899
H       -1.16409351       7.70578375       3.19493668
H       -2.42828295       7.89906728       2.00153891
H       -1.16531349       9.99154019      -2.13954154
H        2.76767735      11.00043934      -2.84140370
H        1.85885035       8.56194941       0.58395690
H       -0.80248949       3.59137474       1.18920502
C        1.79280627      -1.79280627       1.79280627
C        2.98850020      -2.29594098       1.28450422
C        3.79301459      -3.09700689       2.09163035
C        3.39672688      -3.38665824       3.39879741
C        2.19604882      -2.88397540       3.90934008
O        1.93227004      -3.24006852       5.20436815
C        0.67375143      -2.83377271       5.73760131
C        0.55473573      -3.33914083       7.17193369
O       -0.68917701      -2.90928894       7.74997515
C       -1.74831801      -3.72108104       7.51604846
O       -1.73054717      -4.76793802       6.89045535
C       -2.96711665      -3.16488962       8.13487063
C       -4.06397923      -4.00217274       8.30340980
N       -5.24064637      -3.60265967       8.84772978
C       -5.32434698      -2.30538119       9.22812431
C       -4.28523483      -1.39682678       9.08881001
Br      -4.49611917       0.39698609       9.62933120
C       -3.08426414      -1.83050147       8.53532951
C        1.39078951      -2.08204930       3.09905108
H        3.29962255      -2.07088087       0.26799747
H        4.72743480      -3.49651454       1.70616040
H        4.02799543      -4.01306263       4.02512262
H       -0.14801532      -3.23995973       5.13560333
H        0.59485738      -1.73931709       5.74626915
H        1.36300393      -2.91988784       7.78192217
H        0.67310626      -4.42855755       7.22722533
H       -4.03208403      -5.04730224       8.00209393
H       -6.28045132      -2.01598072       9.65582889
H       -2.25837270      -1.13640737       8.40902129
H        0.45410648      -1.67094118       3.45802160
C       -0.00445707       0.01189536      -1.78238275
H       -0.66409135       0.67374010      -2.43557963
H        0.65740317      -0.63156657      -2.45157240
C       -0.90989263      -0.90692880      -0.91072765
C        0.90977584       0.90977584      -0.90977584
C       -0.00465871       1.77757030       0.00794375
H       -0.66225468       2.44313916      -0.64384735
H        0.64322798       2.43503045       0.67728295
C       -1.78241447       0.00034974      -0.00472694
H       -2.45427497      -0.65498947       0.64260836
H       -2.43311707       0.67328779      -0.65473579
C       -0.91132561       0.90220522       0.91563759
C       -0.01476271      -0.02253852       1.78660255
H       -0.67934791      -0.69751639       2.42135241
H        0.63392994       0.61504881       2.47327442
C        0.01484550      -1.77751727      -0.01636693
H        0.67870853      -2.42144646      -0.68295456
H       -0.62264859      -2.45592969       0.64226336
C        1.78714474       0.01002794       0.00389507
H        2.44202412       0.67113390       0.66197326
H        2.45385902      -0.65136977      -0.64189061
C        0.91606151      -0.90478549       0.90901405
