93
Properties=species:S:1:pos:R:3 pbc="F F F"
C        0.00000000       0.00000000       0.00000000
C        0.88361553       0.88361553      -0.88361553
C        0.57680460       2.23459794      -1.02200247
C        1.37234693       3.06058577      -1.82572947
C        2.48811700       2.51434553      -2.49448446
C        2.76465354       1.15708681      -2.33210183
C        1.98200717       0.31291771      -1.53328274
N        3.88663390       0.88159565      -3.07817824
H        4.31724745      -0.02888139      -3.14839164
C        4.34436796       2.01114322      -3.71551508
C        5.44476128       2.18451067      -4.56564656
C        5.66639294       3.46868714      -5.07172065
C        4.83041012       4.53364237      -4.74719452
C        3.73580764       4.33817179      -3.89522594
C        3.48569159       3.05361070      -3.36799531
H       -0.28147785       2.66209743      -0.50967375
H        1.12974831       4.11410057      -1.93133662
H        2.21999911      -0.73994883      -1.42442716
H        6.09678284       1.35582400      -4.81930216
H        5.01709396       5.52623638      -5.14954235
H        3.08591083       5.17141124      -3.64400736
C        6.78623933       3.69210065      -5.94900650
C        7.72411069       3.87920946      -6.68373339
Br       9.24056935       4.18174859      -7.87172464
C       -0.88361553      -0.88361553      -0.88361553
C       -0.48499303      -2.18873049      -1.15968149
C       -1.27884997      -3.01387529      -1.96593691
C       -2.48660705      -2.51367269      -2.49666724
C       -2.85361202      -1.20163043      -2.19859974
C       -2.07440251      -0.35913623      -1.39466888
N       -4.05293467      -0.96485228      -2.82862085
H       -4.55779880      -0.09149994      -2.78745895
C       -4.47339362      -2.07587571      -3.52175694
C       -5.62501612      -2.27499433      -4.29490807
C       -5.78772558      -3.52984308      -4.88923207
C       -4.84654708      -4.54212835      -4.72257158
C       -3.70224862      -4.32168906      -3.94526768
C       -3.50948002      -3.06569530      -3.33212227
H        0.44444242      -2.58060375      -0.75413199
H       -0.96448185      -4.03151885      -2.17918480
H       -2.38386842       0.65800031      -1.17860933
H       -6.35898052      -1.48733215      -4.42559633
H       -4.98853352      -5.51248418      -5.19185499
H       -2.97024567      -5.11386341      -3.81722036
C       -6.95706321      -3.77820154      -5.69208173
C       -7.93638347      -3.98620174      -6.36446833
Br      -9.51986150      -4.32252049      -7.45166059
C       -0.88361553       0.88361553       0.88361553
C       -2.09124234       0.38130555       1.36085713
C       -2.91460223       1.17326407       2.17079588
C       -2.51169902       2.48450787       2.50074010
C       -1.29562783       2.95358678       2.00462757
C       -0.45697422       2.17846207       1.19277133
N       -1.14063702       4.23989768       2.46587309
H       -0.34598790       4.82846982       2.26229998
C       -2.21163608       4.61778708       3.24160310
C       -2.46443352       5.82650186       3.90398315
C       -3.65622273       5.92214179       4.62843620
C       -4.55733550       4.86272127       4.69119024
C       -4.28477032       3.66298219       4.02145286
C       -3.09004441       3.53537751       3.28187567
H       -2.40792423      -0.62810274       1.11047184
H       -3.85611362       0.77792249       2.54114938
H        0.48437297       2.56853684       0.82031357
H       -1.76338403       6.65258671       3.85593826
H       -5.47981300       4.95378477       5.25927492
H       -4.98997247       2.83847643       4.07288053
C       -3.95613285       7.14630929       5.32490434
C       -4.20730757       8.17154956       5.90819641
Br      -4.61343586       9.82927637       6.85133036
C        0.88361553      -0.88361553       0.88361553
C        2.15007612      -0.43485050       1.24847840
C        2.97451587      -1.22779285       2.05635345
C        2.51267887      -2.48531786       2.49895026
C        1.23863761      -2.90161780       2.11358677
C        0.39777529      -2.12452517       1.30590716
N        1.03409623      -4.14275806       2.66955350
H        0.19187116      -4.68800053       2.55688600
C        2.12899627      -4.54230171       3.39972828
C        2.34898930      -5.72100252       4.12492670
C        3.57855281      -5.85091193       4.77733599
C        4.54705858      -4.85294258       4.71124585
C        4.30631780      -3.68230900       3.98057857
C        3.07483067      -3.52133044       3.31113649
H        2.51234162       0.53299218       0.91094389
H        3.96201541      -0.87432186       2.33884822
H       -0.58936971      -2.47289617       1.02095098
H        1.59544313      -6.49922228       4.17724359
H        5.49819243      -4.96999425       5.22468601
H        5.06412743      -2.90572807       3.93147393
C        3.84678153      -7.04602530       5.53453964
C        4.07142308      -8.04693275       6.16869771
Br       4.43464948      -9.66531544       7.19407766
