165
Properties=species:S:1:pos:R:3 pbc="F F F"
C        0.00000000       0.00000000       0.00000000
C        0.88279358       0.88279358      -0.88279358
C        0.90442795       2.25957485      -0.67326608
C        1.69500615       3.06424960      -1.49025114
C        2.45855772       2.48767354      -2.51023691
C        2.45424435       1.10044536      -2.71070423
C        1.65405480       0.30048596      -1.89147244
N        3.26589044       0.59314651      -3.74072915
C        3.57891826      -0.72727526      -4.00510123
O        3.20741405      -1.71054856      -3.37500250
C        4.49193153      -0.86310816      -5.15655393
N        4.80376193       0.17720752      -5.95048331
N        5.64505156      -0.34816171      -6.86938071
C        6.08266611       0.49766630      -7.95909520
C        5.95168120      -1.67269289      -6.65457841
C        5.17352006      -2.03646018      -5.56897191
C        6.92010800      -2.42424150      -7.43267981
O        7.79720788      -1.85233179      -8.06937862
N        6.73466438      -3.79529254      -7.39847153
C        7.49652611      -4.78255740      -8.06582441
C        8.65048483      -4.51120932      -8.80712107
C        9.34422333      -5.53938341      -9.45457764
C        8.89308396      -6.85294429      -9.36597563
C        7.75004631      -7.13160798      -8.62249706
C        7.05425764      -6.10893110      -7.97210614
H        0.31088150       2.71034697       0.11754672
H        1.71977565       4.13937655      -1.33242694
H        3.07139564       3.13618494      -3.13155853
H        1.60337064      -0.77451337      -2.03023814
H        3.74408712       1.25218702      -4.34983363
H        6.29528895      -0.10780026      -8.84197702
H        6.96905253       1.04478440      -7.63196146
H        5.27508098       1.19282635      -8.20742560
H        5.12852423      -2.99853542      -5.07577858
H        5.92777614      -4.13149189      -6.89077449
H        9.04842248      -3.50602108      -8.90354896
H       10.23800010      -5.30666290     -10.02868741
H        9.43651654      -7.64419500      -9.87538907
H        6.16296333      -6.35505754      -7.40136172
C        7.27828444      -8.48885267      -8.52801126
C        6.88318387      -9.62554511      -8.44887939
Br       6.24433967     -11.46348064      -8.32092986
C       -0.88279358      -0.88279358      -0.88279358
C       -0.91089429      -0.66776505      -2.25860954
C       -1.72961575      -1.46080813      -3.05908302
C       -2.51389645      -2.46315925      -2.47941247
C       -2.47266073      -2.69503708      -1.09769613
C       -1.65395439      -1.89155786      -0.30050095
N       -3.27157422      -3.73589386      -0.59229803
C       -3.25787176      -4.27822133       0.67934887
O       -2.52976287      -3.95149270       1.60938759
C       -4.22388728      -5.38458405       0.82309403
N       -5.13007968      -5.67287886      -0.12849422
N       -5.81330011      -6.72624861       0.37327816
C       -6.95617219      -7.21598767      -0.36726775
C       -5.33288315      -7.18100118       1.58031761
C       -4.32598528      -6.28998519       1.90993867
C       -5.82173067      -8.36708942       2.26027377
O       -6.41237927      -9.24747755       1.64560210
N       -5.58092536      -8.37997833       3.62306032
C       -5.95159366      -9.38012659       4.55192713
C       -6.55249966     -10.59191526       4.19801835
C       -6.90669412     -11.52822814       5.17550470
C       -6.66136533     -11.26453932       6.51978935
C       -6.05549346     -10.06408404       6.87864210
C       -5.69779779      -9.12607125       5.90643635
H       -0.30369344       0.11143170      -2.71142002
H       -1.75606158      -1.30155784      -4.13395972
H       -3.14110160      -3.07225841      -3.12577911
H       -1.61272821      -2.02227748       0.77591029
H       -3.90826096      -4.21016796      -1.22767885
H       -7.68205277      -7.66223178       0.31481884
H       -6.60200164      -7.94421834      -1.09957841
H       -7.43451473      -6.37035597      -0.87046222
H       -3.68741432      -6.30175703       2.78340396
H       -5.14607774      -7.55577956       4.01479856
H       -6.76046277     -10.84995796       3.16447037
H       -7.37592471     -12.46350708       4.87940718
H       -6.94341904     -11.99631253       7.27202096
H       -5.22919312      -8.19573704       6.21566266
C       -5.79996120      -9.78564776       8.26816594
C       -5.58595294      -9.55245738       9.43189216
Br      -5.23991968      -9.17540825      11.31353903
C       -0.88279358       0.88279358       0.88279358
C       -0.79940759       0.76939662       2.26846467
C       -1.61748102       1.56121388       3.07081200
C       -2.51250713       2.46085425       2.48310679
C       -2.58448991       2.59148377       1.08942025
C       -1.76542715       1.78952761       0.29105845
N       -3.49179445       3.53394761       0.57402405
C       -3.60666183       3.97970611      -0.72962372
O       -2.92243675       3.63585687      -1.68642563
C       -4.66002215       5.00269194      -0.87733679
N       -5.51705156       5.29757266       0.11682855
N       -6.30994382       6.26077065      -0.40444391
C       -7.43205030       6.72393450       0.38344282
C       -5.94951900       6.65655759      -1.67250986
C       -4.90432458       5.81538037      -2.01367316
C       -6.57127662       7.75198310      -2.39471341
O       -7.18183894       8.63265745      -1.80024167
N       -6.42710430       7.67999708      -3.76925801
C       -6.93469431       8.58009793      -4.73499912
C       -7.59820932       9.77032292      -4.42213567
C       -8.08802555      10.60444004      -5.43304802
C       -7.91747327      10.25900224      -6.77036021
C       -7.25020475       9.08002773      -7.08929709
C       -6.75714475       8.24406884      -6.08378091
H       -0.10595193       0.07003585       2.72769398
H       -1.55745410       1.48100819       4.15311684
H       -3.13703619       3.07147436       3.13062855
H       -1.80873190       1.84226043      -0.79189692
H       -4.11647607       4.00896689       1.22066481
H       -8.23465956       7.06677143      -0.27196527
H       -7.08321153       7.52746586       1.03512100
H       -7.81006857       5.88702117       0.97824319
H       -4.33046282       5.80628521      -2.93098064
H       -5.96027301       6.86102844      -4.13424271
H       -7.75269940      10.08959089      -3.39633994
H       -8.60396082      11.52440756      -5.16834376
H       -8.30468263      10.91141482      -7.54838684
H       -6.24311008       7.32799928      -6.36184185
C       -7.07153813       8.71725678      -8.47135189
C       -6.92190484       8.41343610      -9.62882278
Br      -6.67996046       7.92218377     -11.50035533
C        0.88279358      -0.88279358       0.88279358
C        0.90084956      -2.26008922       0.67633010
C        1.69145565      -3.06470436       1.49334689
C        2.45860887      -2.48755685       2.51030245
C        2.45787688      -1.09987392       2.70764313
C        1.65764377      -0.29995747       1.88841196
N        3.27299084      -0.59208934       3.73468592
C        3.58959221       0.72821438       3.99536640
O        3.21888311       1.71090142       3.36388630
C        4.50550959       0.86457963       5.14444733
N        4.81678684      -0.17464518       5.94002075
N        5.66133376       0.35089210       6.85582889
C        6.09950162      -0.49346331       7.94646268
C        5.97046325       1.67423910       6.63734257
C        5.19067275       2.03731520       5.55267424
C        6.94233852       2.42534975       7.41155754
O        7.81958328       1.85289637       8.04756780
N        6.75991033       3.79673579       7.37466884
C        7.52550283       4.78377862       8.03806890
C        8.68051921       4.51149546       8.77737282
C        9.37803612       5.53955641       9.42093785
C        8.92966095       6.85393043       9.33038478
C        7.78557715       7.13349955       8.58885780
C        7.08601585       6.11093381       7.94235064
H        0.30450226      -2.71130087      -0.11212137
H        1.71344385      -4.14023771       1.33789758
H        3.07138552      -3.13604893       3.13170466
H        1.60969768       0.77546386       2.02486159
H        3.75107557      -1.25083372       4.34419847
H        6.31548418       0.11351055       8.82749208
H        6.98391037      -1.04331970       7.61856833
H        5.29091424      -1.18623455       8.19818413
H        5.14673200       2.99837505       5.05741045
H        5.95263688       4.13361224       6.86803410
H        9.07640603       3.50563040       8.87517473
H       10.27258112       5.30611166       9.99355516
H        9.47602643       7.64509763       9.83678181
H        6.19399114       6.35778640       7.37306276
C        7.31666480       8.49159052       8.49236874
C        6.92395070       9.62899170       8.41155916
Br       6.28896522      11.46807321       8.28089689
