117
Properties=species:S:1:pos:R:3 pbc="F F F"
C        0.00000000       0.00000000       0.00000000
O        3.93214637       6.03691375      -5.29256062
C        4.05067601       5.29955710      -4.31706651
C        2.88754805       4.42094448      -3.85133708
O        3.39337260       3.28286694      -3.15620119
C        2.49215190       2.52665814      -2.46301093
C        1.10361366       2.65907494      -2.50618051
C        0.29750529       1.83828313      -1.70973403
C        0.88134214       0.88134214      -0.88134214
C        2.26397358       0.72584031      -0.85154892
C        3.06524261       1.54684010      -1.64681418
N        5.14798351       5.21069846      -3.47705032
C        6.36943742       5.90054641      -3.56649054
C        6.71423151       6.73461244      -4.63260637
C        7.94813939       7.39522109      -4.64495958
C        8.83725405       7.22743954      -3.58718140
Br      10.49479073       8.13458812      -3.59719687
C        8.50937426       6.39505373      -2.52091115
C        7.28076421       5.72909072      -2.51631161
H        2.32697586       4.09739499      -4.73501968
H        2.26724539       5.04307703      -3.19508089
H        0.61405982       3.38619319      -3.14640041
H       -0.78285764       1.95538247      -1.74215043
H        2.72778556      -0.02299664      -0.21542442
H        4.14555809       1.42476121      -1.62416440
H        5.04184379       4.55967645      -2.70280918
H        6.04964245       6.88403646      -5.47740127
H        8.19862970       8.03668590      -5.48617953
H        9.19719841       6.26086971      -1.69008806
H        7.04158939       5.08646455      -1.67184253
O       -6.15738400      -4.02279825      -5.08143849
C       -4.96228575      -3.79688488      -4.90812899
C       -4.48806268      -2.93805338      -3.73371355
O       -3.15127107      -3.29434887      -3.38682080
C       -2.48975179      -2.46438048      -2.52768870
C       -3.04830519      -1.39650301      -1.82406092
C       -2.24114841      -0.60065477      -1.00371927
C       -0.88134214      -0.88134214      -0.88134214
C       -0.32168642      -1.95985444      -1.55982195
C       -1.12963921      -2.75130582      -2.37795185
N       -3.92076077      -4.17732666      -5.73764486
C       -3.98430087      -4.92749423      -6.92467926
C       -5.15253153      -5.52374170      -7.40517709
C       -5.13713851      -6.24896947      -8.60221209
C       -3.95370758      -6.37382471      -9.32434270
Br      -3.93928291      -7.33789272     -10.94940008
C       -2.78082666      -5.78972797      -8.85478450
C       -2.79731546      -5.07465165      -7.65419943
H       -5.15385860      -3.12194731      -2.88358462
H       -4.54719236      -1.89410034      -4.06411061
H       -4.10458756      -1.15463975      -1.88742612
H       -2.68285219       0.23544867      -0.46727174
H        0.73549874      -2.19163947      -1.46407262
H       -0.69250044      -3.59454392      -2.90743933
H       -2.99978128      -3.86804839      -5.43649975
H       -6.09168497      -5.45341102      -6.86598419
H       -6.05645957      -6.70854203      -8.95649353
H       -1.85336011      -5.88062008      -9.41417599
H       -1.87120603      -4.62216035      -7.30653009
O       -4.45720874       6.31952043       4.48489158
C       -4.51821040       5.23150841       3.91758082
C       -3.27795400       4.61492488       3.26695074
O       -3.41361009       3.19578332       3.22304734
C       -2.51559746       2.50886767       2.45735584
C       -1.37708480       3.04105767       1.85072664
C       -0.56178947       2.22664258       1.05709039
C       -0.88134214       0.88134214       0.88134214
C       -2.00089864       0.33700548       1.50345870
C       -2.81249959       1.15247876       2.29391854
N       -5.65725131       4.47311783       3.70536315
C       -6.97348281       4.74793180       4.11505975
C       -7.32349858       5.82426061       4.93369114
C       -8.65983610       6.03695405       5.29152992
C       -9.64979076       5.17640698       4.82567725
Br     -11.45542441       5.47608258       5.29506873
C       -9.31497198       4.09656488       4.01380228
C       -7.97858086       3.88115835       3.66642733
H       -2.40414345       4.88595034       3.86929674
H       -3.20957828       5.03817244       2.25765258
H       -1.09200855       4.08121152       1.97343336
H        0.31756759       2.65220268       0.58004017
H       -2.25338098      -0.71245476       1.37928712
H       -3.68682879       0.72694422       2.78071068
H       -5.50630045       3.61123139       3.18679758
H       -6.57838725       6.51156349       5.32112943
H       -8.91036726       6.87825392       5.93287394
H      -10.08250519       3.42164327       3.64400773
H       -7.73812746       3.03418851       3.02758049
O        5.42190467      -3.89266667       5.94704940
C        4.39589999      -3.99266693       5.27873270
C        3.94567411      -2.85703869       4.35711681
O        3.15004964      -3.38484657       3.29754453
C        2.46532988      -2.48821501       2.52827609
C        2.60023599      -1.09983657       2.56879655
C        1.80281329      -0.29522835       1.74748080
C        0.88134214      -0.88134214       0.88134214
C        0.75863952      -2.26607909       0.81664421
C        1.55518964      -3.06577860       1.63792864
N        3.48750601      -5.03736544       5.31086083
C        3.54731866      -6.21837507       6.07078064
C        4.64193914      -6.57989511       6.85961607
C        4.62234405      -7.77013821       7.59583781
C        3.50449130      -8.59826430       7.54911940
Br       3.47287741     -10.19553836       8.55815994
C        2.40880808      -8.25348248       6.76304858
C        2.43546620      -7.06933433       6.02136600
H        4.83894242      -2.37457852       3.94586958
H        3.36900544      -2.15978057       4.97661729
H        3.31389939      -0.60941902       3.22333502
H        1.90751035       0.78593073       1.79309564
H        0.04921370      -2.73242101       0.13857864
H        1.45990596      -4.14781416       1.58676358
H        2.68099888      -4.92124456       4.70208598
H        5.53296480      -5.96291219       6.91520319
H        5.48628665      -8.03491018       8.20029830
H        1.53127871      -8.89358856       6.72328892
H        1.56753281      -6.81569621       5.41666745
