141
Properties=species:S:1:pos:R:3 pbc="F F F"
C        0.00000000       0.00000000       0.00000000
C        0.88134827       0.88134827      -0.88134827
C        0.49991910       2.18771210      -1.15632262
C        1.30771836       2.99296921      -1.96609470
C        2.50281713       2.50355196      -2.50814246
N        3.34610292       3.28837366      -3.32995229
C        3.17149844       4.59037253      -3.75374037
O        2.20773096       5.30416974      -3.49108184
C        4.29150185       5.13151616      -4.60566164
C        4.16277351       6.39573329      -5.04752122
C        5.20230963       7.01858770      -5.85133598
C        5.09974227       8.33098591      -6.31721119
C        6.14391570       8.88146852      -7.06615807
C        7.28893526       8.13676315      -7.35537020
C        7.39135049       6.82475258      -6.89636617
C        6.34520695       6.28523561      -6.15144381
O        6.48337490       4.96067252      -5.70735083
C        5.49505017       4.34230935      -4.95208759
O        5.62589362       3.17590611      -4.58646515
C        2.88838794       1.17273637      -2.22133996
C        4.15787024       0.56596102      -2.76053822
C        2.06549166       0.37251820      -1.40680174
H       -0.42139356       2.59622586      -0.74990998
H        0.96901024       4.00731014      -2.15079057
H        4.19573066       2.82480667      -3.64817570
H        3.28793001       6.99571512      -4.80754408
H        4.21619003       8.92578966      -6.09792249
H        8.10146641       8.56839887      -7.93432722
H        8.27595482       6.23285866      -7.11416069
H        4.28754964      -0.46815557      -2.42384990
H        5.02798560       1.13231952      -2.41269618
H        4.13753324       0.55306498      -3.85514772
H        2.35412187      -0.65268893      -1.18404024
C        6.04009406      10.23660147      -7.54201072
C        5.95314344      11.37152532      -7.94053731
Br       5.81255163      13.20660120      -8.58492110
C       -0.88134827      -0.88134827      -0.88134827
C       -0.35583714      -2.02952838      -1.45858829
C       -1.16442017      -2.83455052      -2.26781158
C       -2.50371882      -2.50267781      -2.50811493
N       -3.35223692      -3.29277732      -3.31941464
C       -3.05619560      -4.45253090      -4.00688485
O       -1.95853585      -5.00132375      -4.04312295
C       -4.21739401      -5.05479070      -4.75649494
C       -3.97527582      -6.18384717      -5.44690503
C       -5.03628487      -6.85752567      -6.17842277
C       -4.81639844      -8.03441071      -6.89713021
C       -5.88296283      -8.64765763      -7.56092183
C       -7.16617179      -8.09937571      -7.51552111
C       -7.38716389      -6.92173899      -6.80356637
C       -6.31770953      -6.31809133      -6.14608551
O       -6.57818473      -5.13275777      -5.44045575
C       -5.57534361      -4.46547080      -4.74863270
O       -5.81846962      -3.41936217      -4.15043307
C       -3.03488447      -1.33350068      -1.91407911
C       -4.46442559      -0.90266573      -2.11727815
C       -2.20996387      -0.53123085      -1.10361688
H        0.67943636      -2.31377313      -1.29040552
H       -0.70966779      -3.72253027      -2.69491290
H       -4.31000945      -2.95559145      -3.40311213
H       -2.98625958      -6.63581159      -5.46911804
H       -3.82373502      -8.47638809      -6.93977906
H       -7.99486839      -8.58036240      -8.02896173
H       -8.38009526      -6.48301964      -6.75985927
H       -4.69082293       0.02017965      -1.57260070
H       -5.14999888      -1.67323715      -1.74976526
H       -4.65626674      -0.71137389      -3.17810531
H       -2.61067136       0.37077275      -0.64557456
C       -5.65694239      -9.86409364      -8.29767023
C       -5.46765027     -10.88285879      -8.91469701
Br      -5.16158092     -12.53011589      -9.91237713
C       -0.88134827       0.88134827       0.88134827
C       -2.16579299       0.46873316       1.20942768
C       -2.97269654       1.27887494       2.01521080
C       -2.50628798       2.50670987       2.50151371
N       -3.29255619       3.35205371       3.31981898
C       -4.58852109       3.16886426       3.75822600
O       -5.30705488       2.21183586       3.48409181
C       -5.11377946       4.26626654       4.64863364
C       -6.37562652       4.13416612       5.09623539
C       -6.96375733       5.12429842       5.98417756
C       -8.26766506       5.00965101       6.47062329
C       -8.76832231       5.98293421       7.34028577
C       -7.98230806       7.06918057       7.72957998
C       -6.68249292       7.18894714       7.24102918
C       -6.19315838       6.21420186       6.37452613
O       -4.88029839       6.36902068       5.90207918
C       -4.30571555       5.44298547       5.04074608
O       -3.16054477       5.60403791       4.62368218
C       -1.19512083       2.92023597       2.16710745
C       -0.61239384       4.22393365       2.64804199
C       -0.39435659       2.09656276       1.35389225
H       -2.55579113      -0.47892304       0.84787419
H       -3.96793283       0.91298523       2.24619289
H       -2.83477327       4.20991088       3.62402888
H       -6.98984525       3.27957852       4.82176544
H       -8.89192748       4.16801180       6.17996290
H       -8.37234283       7.82252298       8.40932670
H       -6.05933537       8.02907040       7.53456840
H        0.41410145       4.36445644       2.29288897
H       -0.58350992       4.24715357       3.74233781
H       -1.20525138       5.06544709       2.27504747
H        0.61401901       2.40914043       1.09035176
C      -10.11119215       5.86166493       7.84584917
C      -11.23584564       5.76010191       8.26925852
Br     -13.05431522       5.59588309       8.95387562
C        0.88134827      -0.88134827       0.88134827
C        2.10929979      -0.40938191       1.32527211
C        2.91650450      -1.21942994       2.13084784
C        2.50663106      -2.50637235       2.50150814
N        3.29494819      -3.35369407       3.31578662
C        4.54324876      -3.11708793       3.85527466
O        5.20918357      -2.09805709       3.69574188
C        5.08474849      -4.23750250       4.70642865
C        6.30207653      -4.05463463       5.24931686
C        6.89877962      -5.06397566       6.10947803
C        8.15664996      -4.89844880       6.69284060
C        8.66630079      -5.89547664       7.52976487
C        7.93472025      -7.05565050       7.79069786
C        6.68142152      -7.22585618       7.20519156
C        6.18273073      -6.22685176       6.37230388
O        4.91785406      -6.43393544       5.79960875
C        4.33739435      -5.48937517       4.96267758
O        3.23623181      -5.69554747       4.45648559
C        1.25256037      -2.98055511       2.04934879
C        0.73259216      -4.35026751       2.40150980
C        0.45100336      -2.15611297       1.23769526
H        2.45461970       0.58489625       1.05501884
H        3.86624676      -0.80613426       2.45472993
H        2.87961078      -4.25900912       3.53009313
H        6.87140196      -3.14439434       5.07539290
H        8.73794549      -3.99929956       6.50265712
H        8.33127071      -7.82767118       8.44525062
H        6.10093020      -8.12362628       7.39841769
H       -0.25595237      -4.53256577       1.96663057
H        0.63363423      -4.45218872       3.48717834
H        1.40633417      -5.12274324       2.01666853
H       -0.51342690      -2.51491796       0.88398212
C        9.96123215      -5.72214444       8.13532967
C       11.04573716      -5.57697872       8.64249019
Br      12.79929004      -5.34225804       9.46252586
