154
Properties=species:S:1:pos:R:3 pbc="F F F"
C        1.79125230       1.79125230      -1.79125230
C        1.40982312       3.09761612      -2.06622665
C        2.21762239       3.90287323      -2.87599873
C        3.41272116       3.41345599      -3.41804649
N        4.25600694       4.19827769      -4.23985632
C        4.08140246       5.50027655      -4.66364440
O        3.11763498       6.21407377      -4.40098587
C        5.20140587       6.04142018      -5.51556566
C        5.07267754       7.30563731      -5.95742525
C        6.11221366       7.92849172      -6.76124000
C        6.00964629       9.24088993      -7.22711521
C        7.05381972       9.79137254      -7.97606210
Br       6.91744658      11.57138437      -8.60111024
C        8.19883928       9.04666718      -8.26527422
C        8.30125452       7.73465661      -7.80627020
C        7.25511097       7.19513964      -7.06134784
O        7.39327893       5.87057654      -6.61725485
C        6.40495419       5.25221337      -5.86199162
O        6.53579764       4.08581013      -5.49636917
C        3.79829196       2.08264039      -3.13124398
C        5.06777426       1.47586504      -3.67044224
C        2.97539568       1.28242222      -2.31670576
H        0.48851047       3.50612989      -1.65981400
H        1.87891427       4.91721417      -3.06069459
H        5.10563469       3.73471069      -4.55807972
H        4.19783403       7.90561914      -5.71744810
H        5.12609406       9.83569368      -7.00782652
H        9.01137044       9.47830290      -8.84423125
H        9.18585884       7.14276268      -8.02406472
H        5.19745366       0.44174845      -3.33375392
H        5.93788962       2.04222354      -3.32260020
H        5.04743726       1.46296901      -4.76505174
H        3.26402589       0.25721509      -2.09394427
C       -1.79125230      -1.79125230      -1.79125230
C       -1.30459832      -3.00100760      -2.26805998
C       -2.11292643      -3.80608155      -3.07748636
C       -3.41330559      -3.41285463      -3.41806342
N       -4.26039405      -4.20088279      -4.23286411
C       -3.99674814      -5.41568429      -4.83289099
O       -2.93448182      -6.02805549      -4.77015730
C       -5.14746825      -5.99472897      -5.61619450
C       -4.93550574      -7.17601223      -6.22422212
C       -5.99180679      -7.83089319      -6.97924541
C       -5.80329313      -9.06028564      -7.61407266
C       -6.86533642      -9.65048287      -8.30543507
Br      -6.61150238     -11.31901314      -9.15942566
C       -8.11305425      -9.02735888      -8.37036755
C       -8.30223420      -7.79756702      -7.74238010
C       -7.23753485      -7.21748803      -7.05657557
O       -7.46522207      -5.97813670      -6.43775155
C       -6.46498485      -5.32869987      -5.72547445
O       -6.67771130      -4.23565713      -5.20460852
C       -3.90527737      -2.18082243      -2.92607653
C       -5.29166116      -1.68150808      -3.24091230
C       -3.08090949      -1.37935742      -2.11425675
H       -0.30009227      -3.33365638      -2.02070570
H       -1.68951114      -4.74328680      -3.42402509
H       -5.18930535      -3.81477832      -4.39434143
H       -3.97637951      -7.68477380      -6.15974796
H       -4.83874272      -9.56055688      -7.57031466
H       -8.93864724      -9.49027907      -8.90497827
H       -9.26731210      -7.30046203      -7.78491211
H       -5.49217703      -0.71553300      -2.76524601
H       -6.04317135      -2.38731359      -2.87222843
H       -5.40993251      -1.54476872      -4.32075678
H       -3.45139734      -0.42940083      -1.73438708
C       -1.79125230       1.79125230       1.79125230
C       -3.09851203       1.41123704       2.06391682
C       -3.90527410       2.22141141       2.86980883
C       -3.41601965       3.41676711       3.41143688
N       -4.20145193       4.26101650       4.23167252
C       -5.51650446       4.10701322       4.62180573
O       -6.25595403       3.18373007       4.29301052
C       -6.03549184       5.19204981       5.53085007
C       -7.31512454       5.08765020       5.93296536
C       -7.90028755       6.06770207       6.83395576
C       -9.22266597       5.98088538       7.27410009
C       -9.72038351       6.94178541       8.15908544
Br     -11.50960945       6.81995390       8.76037784
C       -8.91319674       7.98819731       8.60938664
C       -7.59467175       8.08033155       8.16717802
C       -7.10841692       7.11824587       7.28493566
O       -5.77626844       7.24444264       6.86039924
C       -5.20346082       6.32801331       5.98768504
O       -4.04046313       6.46423138       5.61328244
C       -2.08182638       3.79700729       3.13334267
C       -1.47375789       5.06444877       3.67587488
C       -1.28138539       2.97375937       2.31937891
H       -3.50656902       0.48920349       1.65868185
H       -4.91890223       1.88157835       3.05634245
H       -3.72666596       5.09293856       4.57882058
H       -7.94706252       4.26323964       5.61059911
H       -9.86368167       5.17026447       6.93566812
H       -9.30117322       8.73182581       9.30090555
H       -6.95490427       8.88938221       8.50839976
H       -0.43202829       5.18211337       3.35881439
H       -1.48055094       5.05146246       4.77069997
H       -2.02649059       5.93678246       3.31218496
H       -0.25526512       3.26094846       2.09897167
C        1.79125230      -1.79125230       1.79125230
C        3.06779009      -1.36874991       2.13712589
C        3.87473944      -2.17887954       2.94287538
C        3.41624621      -3.41656356       3.41141386
N        4.20280274      -4.26223836       4.22909984
C        5.49212606      -4.07017848       4.68301887
O        6.20335777      -3.10287806       4.42645878
C        6.01960485      -5.17136414       5.56742272
C        7.27525636      -5.03084015       6.02964359
C        7.86449649      -6.02408629       6.91336260
C        9.16198301      -5.90098413       7.41468430
C        9.66377223      -6.87810225       8.27937988
Br      11.41888259      -6.70743747       8.96362112
C        8.88522820      -7.97652281       8.64902967
C        7.59190968      -8.10467875       8.14559289
C        7.10139359      -7.12601396       7.28419089
O        5.79523301      -7.28952388       6.79635343
C        5.21993717      -6.36050686       5.93871515
O        4.08093577      -6.52908519       5.50795599
C        2.11306446      -3.84018873       3.05892314
C        1.53912061      -5.15488305       3.52007788
C        1.31218869      -3.01638688       2.24594810
H        3.45153216      -0.41332433       1.78959786
H        4.86360482      -1.80508922       3.18812898
H        3.75093518      -5.12797732       4.51951260
H        7.88326700      -4.16705306       5.77058121
H        9.78034138      -5.04986879       7.13940408
H        9.27606998      -8.73287693       9.32495767
H        6.97461009      -8.95429710       8.42377906
H        0.51792011      -5.30234911       3.15268682
H        1.49907814      -5.18992797       4.61370727
H        2.14466479      -5.98619565       3.14459757
H        0.30996326      -3.33666502       1.96855697
C       -0.00445707       0.01189536      -1.78238275
H       -0.66409135       0.67374010      -2.43557963
H        0.65740317      -0.63156657      -2.45157240
C       -0.90989263      -0.90692880      -0.91072765
C        0.90977584       0.90977584      -0.90977584
C       -0.00465871       1.77757030       0.00794375
H       -0.66225468       2.44313916      -0.64384735
H        0.64322798       2.43503045       0.67728295
C       -1.78241447       0.00034974      -0.00472694
H       -2.45427497      -0.65498947       0.64260836
H       -2.43311707       0.67328779      -0.65473579
C       -0.91132561       0.90220522       0.91563759
C       -0.01476271      -0.02253852       1.78660255
H       -0.67934791      -0.69751639       2.42135241
H        0.63392994       0.61504881       2.47327442
C        0.01484550      -1.77751727      -0.01636693
H        0.67870853      -2.42144646      -0.68295456
H       -0.62264859      -2.45592969       0.64226336
C        1.78714474       0.01002794       0.00389507
H        2.44202412       0.67113390       0.66197326
H        2.45385902      -0.65136977      -0.64189061
C        0.91606151      -0.90478549       0.90901405
