189
Properties=species:S:1:pos:R:3 pbc="F F F"
C        0.00000000       0.00000000       0.00000000
C        0.88105812       0.88105812      -0.88105812
C        2.22360627       0.56533876      -1.05532608
C        3.02788031       1.37131803      -1.86951477
C        2.50894533       2.50868371      -2.51244021
C        1.15052471       2.80753035      -2.31250958
C        0.33937759       1.99777796      -1.50800542
N        3.34562843       3.33923814      -3.35043458
C        4.29997080       2.71180849      -4.16806648
O        4.46534138       1.49935117      -4.28272630
C        5.14871500       3.58143056      -5.01781877
C        6.08430941       2.99040439      -5.87504949
C        6.86893511       3.78486485      -6.70414788
C        6.74825756       5.18028941      -6.66311505
C        5.84557691       5.79194272      -5.79036298
C        5.75037109       7.18941403      -5.71130052
C        4.75515843       7.76797667      -4.90531411
Cl       4.43298644       9.46472035      -4.82832936
C        3.91246973       6.95437430      -4.14312508
C        4.04898892       5.56146129      -4.16582741
C        5.00778015       4.96969431      -4.98211764
C        3.15954688       4.73087010      -3.31765806
O        2.35605521       5.33600147      -2.61112225
C        6.78420856       7.99920890      -6.41312896
O        7.04061325       9.11374214      -5.96448939
N        7.50803708       7.38353924      -7.45066167
C        8.34953259       8.21549521      -8.29299469
C        7.99812887       9.54884927      -8.57501231
C        8.79503323      10.36018614      -9.39360603
C        9.96297114       9.84984134      -9.94661636
C       10.33972923       8.53856269      -9.68595089
C        9.53902215       7.73190169      -8.86663558
C        7.51994928       5.99431227      -7.62908758
O        8.06447890       5.38062730      -8.54454143
H        2.65922617      -0.30140650      -0.56513240
H        4.07771260       1.10275759      -1.96396285
H        0.68357933       3.65861649      -2.80320290
H       -0.71067326       2.25009489      -1.38379155
H        6.19085272       1.90664800      -5.92106148
H        7.56523826       3.30735114      -7.39396740
H        3.14711314       7.41335676      -3.51560057
H        7.08316499       9.98653218      -8.18132943
H        8.48908867      11.38477409      -9.58919730
H       11.25428341       8.12861370     -10.10681027
H        9.89778340       6.72487739      -8.66942542
C       10.78459041      10.68024253     -10.78862328
C       11.47269655      11.37570352     -11.49380407
Br      12.58530597      12.50020513     -12.63402178
C       -0.88105812      -0.88105812      -0.88105812
C       -0.33486410      -1.98669828      -1.52270872
C       -1.14680892      -2.79710438      -2.32479982
C       -2.51106624      -2.51139436      -2.50760866
C       -3.03427525      -1.38359883      -1.85269055
C       -2.22843810      -0.57647624      -1.04024664
N       -3.34446967      -3.35100599      -3.33982550
C       -3.13996977      -4.74008353      -3.29979247
O       -2.34086401      -5.33034370      -2.57621113
C       -4.00348602      -5.58255146      -4.16192686
C       -3.85586954      -6.97393264      -4.11996111
C       -4.67638010      -7.78533557      -4.89623217
C       -5.63264725      -7.21324225      -5.74577253
C       -5.77303057      -5.82613686      -5.82871517
C       -6.69718996      -5.24440737      -6.70948831
C       -6.88994181      -3.85261463      -6.68589277
Cl      -8.09335184      -3.02333838      -7.60934593
C       -6.11983407      -3.05463465      -5.83550040
C       -5.14793365      -3.62391832      -5.00442567
C       -4.96516994      -5.00312949      -4.99129267
C       -4.32539770      -2.74275637      -4.13992095
O       -4.53759753      -1.53536511      -4.23021628
C       -7.36134043      -6.12853501      -7.70667097
O       -7.73413825      -5.62249993      -8.76220660
N       -7.38618000      -7.51075155      -7.44530644
C       -8.22177931      -8.35599209      -8.28025109
C       -9.42537761      -7.87121069      -8.82540216
C      -10.24629510      -8.67796311      -9.62456719
C       -9.87576555      -9.98961898      -9.89404432
C       -8.69267445     -10.49814277      -9.37342560
C       -7.87570974      -9.68684438      -8.57500530
C       -6.56067605      -8.10212219      -6.48055089
O       -6.56634748      -9.28329656      -6.14000359
H        0.71832985      -2.23066507      -1.41061685
H       -0.67755474      -3.64064090      -2.82623741
H       -4.08765445      -1.12459319      -1.93315108
H       -2.66721826       0.28190657      -0.53790148
H       -3.11821162      -7.43623520      -3.46411537
H       -4.57515471      -8.86843054      -4.82297156
H       -6.27250380      -1.97441510      -5.82915157
H       -9.76724848      -6.85776034      -8.62601778
H      -11.16925903      -8.26755785     -10.02624318
H       -8.38754984     -11.52044734      -9.58171019
H       -6.94594989     -10.12502679      -8.22110954
C      -10.71672348     -10.82208967     -10.71464308
C      -11.42102574     -11.51928386     -11.40189454
Br     -12.55982293     -12.64658792     -12.51312203
C       -0.88105812       0.88105812       0.88105812
C       -0.72749555       2.26243010       0.85434546
C       -1.54163619       3.06865814       1.65841878
C       -2.51222585       2.50979339       2.50805001
C       -2.64032963       1.11049325       2.51974176
C       -1.83585098       0.30060879       1.70870120
N       -3.34875978       3.34790812       3.33863325
C       -3.81046561       4.56301298       2.80636718
O       -3.61206786       4.97117126       1.66417972
C       -4.66495098       5.40813312       3.67488023
C       -5.17629714       6.60765922       3.16580694
C       -6.00568018       7.40064613       3.95162154
C       -6.30806825       7.01827211       5.26532166
C       -5.78053018       5.84284450       5.80450792
C       -6.04233519       5.47573571       7.13301474
C       -5.58812344       4.23325462       7.60707115
Cl      -5.96230458       3.59443267       9.16929891
C       -4.82903198       3.40361700       6.77732014
C       -4.50677355       3.79647396       5.47303012
C       -4.97453657       5.00893949       4.97611604
C       -3.67024703       2.90561087       4.63221712
O       -3.28177162       1.86422834       5.15717897
C       -6.70757068       6.47496255       8.01401319
O       -6.48646996       6.41158771       9.22078711
N       -7.42470813       7.51789380       7.39963606
C       -8.26482112       8.36134227       8.23185910
C       -8.90437472       7.84382778       9.37378795
C       -9.72531236       8.64303077      10.18048225
C       -9.92145094       9.98011602       9.85786189
C       -9.30267606      10.52267443       8.73889233
C       -8.48282084       9.71880837       7.93593021
C       -7.27513956       7.82660692       6.04160266
O       -7.90915329       8.66986248       5.41063186
H        0.01980297       2.72664812       0.21610692
H       -1.37661888       4.14328090       1.62453326
H       -3.39030602       0.61934003       3.13575268
H       -1.96874152      -0.77803532       1.73250698
H       -4.95259925       6.92011905       2.14584390
H       -6.42717253       8.31219070       3.52719358
H       -4.47558975       2.44374844       7.15673228
H       -8.79718542       6.79840976       9.65543142
H      -10.20320947       8.20619665      11.05365394
H       -9.44226274      11.56879928       8.47864536
H       -7.99764396      10.20251113       7.09193113
C      -10.76456626      10.80477933      10.68411063
C      -11.47067533      11.49543485      11.37609396
Br     -12.61239399      12.61216640      12.49497248
C        0.88105812      -0.88105812       0.88105812
C        2.08359019      -0.38718776       1.37349314
C        2.88655149      -1.19511223       2.18704939
C        2.50830813      -2.50939961       2.51236151
C        1.29133809      -2.98445252       1.99477403
C        0.47936242      -2.17599460       1.18980396
N        3.34353268      -3.34043392       3.35133455
C        4.00086579      -2.74077669       4.43820328
O        3.89609080      -1.56633736       4.78499068
C        4.85366337      -3.60987116       5.28442980
C        5.49364657      -3.05648402       6.39963271
C        6.27282592      -3.85959316       7.22552876
C        6.44541838      -5.21800625       6.92823739
C        5.84396192      -5.78265648       5.80126420
C        6.04790554      -7.13109582       5.47208427
C        5.33930524      -7.69278592       4.39635805
Cl       5.38440586      -9.36837781       3.97325248
C        4.48904010      -6.89444310       3.62648592
C        4.33530672      -5.53209831       3.90887261
C        5.00436882      -4.96583920       4.98938408
C        3.45086532      -4.70779139       3.04941832
O        2.91601515      -5.28317752       2.10398626
C        7.09194387      -7.88160142       6.22300113
O        7.63975104      -8.82349616       5.65559758
N        7.49245345      -7.37629864       7.47348590
C        8.33187986      -8.20875820       8.31738443
C        8.21526896      -9.61117629       8.29554520
C        9.01146574     -10.42639351       9.11096614
C        9.94282836      -9.85049763       9.96610286
C       10.08479966      -8.46946050      10.00998265
C        9.28599959      -7.65924515       9.19231469
C        7.19318961      -6.06983339       7.88032613
O        7.44149308      -5.57173497       8.97641958
H        2.41062784       0.62114619       1.13347042
H        3.82950418      -0.77954487       2.53538399
H        0.93082236      -3.98301413       2.23156224
H       -0.46210956      -2.56990486       0.81541788
H        5.36960800      -2.00218959       6.64676461
H        6.73284443      -3.42189342       8.11181896
H        3.94822534      -7.33840274       2.78944239
H        7.48668668     -10.10688190       7.65745803
H        8.89073191     -11.50578609       9.06654205
H       10.81405146      -8.00608125      10.66957467
H        9.46152201      -6.58764339       9.24292081
C       10.76281501     -10.68471392      10.80592729
C       11.44955383     -11.38337006      11.50928026
Br      12.55995242     -12.51303795      12.64654251
