186
Properties=species:S:1:pos:R:3 pbc="F F F"
C        1.79515010       1.79515010      -1.79515010
N        1.52049468       3.11670702      -1.82482771
C        2.30751001       3.88762490      -2.60012963
C        3.35861044       3.39376049      -3.35016130
C        3.62928107       2.02215421      -3.31047922
C        2.82450336       1.20610564      -2.51255188
C        4.73996148       1.49505832      -4.09459974
N        5.61454559       2.16605914      -4.82160956
C        6.42568933       1.19118954      -5.33741680
C        7.53769772       1.28097953      -6.17901615
C        8.17047323       0.09376943      -6.58307576
N        9.29228919       0.14257910      -7.42839090
C        9.08156445       0.59405265      -8.62770493
C       10.18059040       0.75951703      -9.59897735
C        9.84696921       1.24501053     -10.87034986
C       10.84132697       1.44271412     -11.83649180
C       10.47262522       1.96722344     -13.19337653
C       12.17300177       1.15637472     -11.51083016
C       12.50665557       0.67320103     -10.23988866
C       11.51365459       0.47216855      -9.27760537
O       11.86950583       0.00379356      -8.03870891
C        7.71512022      -1.14704361      -6.10997067
C        6.60815453      -1.25471424      -5.25335378
C        6.00266268      -0.05429437      -4.90553521
O        4.91599147       0.13239111      -4.10015309
H        2.06498415       4.94686984      -2.60455208
H        3.95861458       4.06781751      -3.95535887
H        2.99858321       0.13704385      -2.44748668
H        7.89450431       2.24951572      -6.50934846
H        8.06907378       0.88558145      -8.96641688
H        8.81214917       1.47483656     -11.11665483
H       11.34167352       2.01055492     -13.85772004
H       10.06122193       2.97798647     -13.10690821
H        9.72789922       1.31419688     -13.65994453
H       12.95625929       1.31092036     -12.25043706
H       11.05214111      -0.06665885      -7.49580406
H        8.23783769      -2.05178576      -6.41703833
H        6.25072792      -2.20817561      -4.88577332
C       13.89260060       0.39882542      -9.96154645
C       15.05332957       0.16903585      -9.72843484
Br      16.93013013      -0.20251446      -9.35151309
C       -1.79515010      -1.79515010      -1.79515010
N       -1.91387822      -3.09565743      -1.45249375
C       -2.69883037      -3.86429421      -2.23213996
C       -3.37061025      -3.38892680      -3.34299517
C       -3.23593623      -2.03977454      -3.68620373
C       -2.42639864      -1.22647037      -2.89029186
C       -3.94613997      -1.53015095      -4.85332861
N       -4.79450682      -2.17246563      -5.63524183
C       -5.15553864      -1.23418156      -6.56457548
C       -6.03225591      -1.31567043      -7.64976705
C       -6.19044649      -0.18657838      -8.47029355
N       -7.06366370      -0.22879262      -9.57080288
C       -6.73336828      -1.04183232     -10.52812142
C       -7.59125405      -1.23409883     -11.71373191
C       -7.14038257      -2.12669306     -12.69525397
C       -7.91116583      -2.37057516     -13.83879190
C       -7.42002444      -3.33191736     -14.88128339
C       -9.14118297      -1.71650739     -13.98251630
C       -9.59265902      -0.82619193     -13.00089431
C       -8.82132994      -0.58002206     -11.86207650
O       -9.29070027       0.29214977     -10.91345779
C       -5.51244308       1.00580118      -8.17140538
C       -4.63857493       1.10939399      -7.07761313
C       -4.49723030      -0.04221996      -6.31445325
O       -3.71589285      -0.22322181      -5.20942100
H       -2.77739808      -4.90601283      -1.93299515
H       -3.99083051      -4.05943279      -3.93152765
H       -2.29457734      -0.17318826      -3.11534813
H       -6.57134293      -2.23486159      -7.84716398
H       -5.79939514      -1.63419599     -10.48748098
H       -6.18815848      -2.63982510     -12.57565699
H       -8.09598902      -3.37250187     -15.74145758
H       -7.34726452      -4.33944003     -14.45941207
H       -6.43494714      -3.02202794     -15.24506555
H       -9.75270745      -1.90132890     -14.86358036
H       -8.62832430       0.33436182     -10.18732384
H       -5.67091905       1.87541951      -8.80759072
H       -4.11146273       2.02514555      -6.84200846
C      -10.86627439      -0.18496756     -13.20173052
C      -11.93292727       0.35205786     -13.36993084
Br     -13.65761475       1.22038253     -13.64189654
C       -1.79515010       1.79515010       1.79515010
N       -3.01032278       1.31562148       2.13608515
C       -3.77850140       2.09736157       2.91940157
C       -3.38473629       3.34123178       3.37656416
C       -2.12380283       3.82503448       3.01307717
C       -1.31247412       3.02934621       2.20134055
C       -1.69955402       5.13377629       3.49628922
N       -2.33616044       5.94212417       4.32392968
C       -1.50025103       7.02087537       4.43316927
C       -1.62486833       8.19995372       5.17287134
C       -0.61111869       9.16677683       5.06942289
N       -0.69972441      10.36523143       5.79830335
C       -1.67321270      11.15979497       5.47031436
C       -1.92305235      12.42130958       6.19472286
C       -2.99288388      13.21299797       5.75644775
C       -3.29822298      14.41463861       6.40767129
C       -4.44908330      15.25215439       5.93198751
C       -2.52487953      14.80844818       7.50687894
C       -1.45719875      14.01646684       7.94607966
C       -1.15034034      12.81966785       7.29342031
O       -0.10291626      12.06039488       7.74869716
C        0.51913160       8.92434392       4.27283496
C        0.66702091       7.73992568       3.53388930
C       -0.37483004       6.82906414       3.65000933
O       -0.49363254       5.61166488       3.04323825
H       -4.75043624       1.68669522       3.17927461
H       -4.04992172       3.92415113       4.00771810
H       -0.32532656       3.36117528       1.89661190
H       -2.48952413       8.35670897       5.80713539
H       -2.36406858      10.91632252       4.64068101
H       -3.59706748      12.89911021       4.90746287
H       -4.52659924      16.18703461       6.49631462
H       -5.38878129      14.70389508       6.05344026
H       -4.31641561      15.50952784       4.87609718
H       -2.75494021      15.73713145       8.02554505
H       -0.04091949      11.25931389       7.18105295
H        1.30381609       9.67826665       4.22863971
H        1.53512055       7.54688743       2.91655876
C       -0.69913058      14.47092386       9.08291803
C       -0.06424849      14.85153161      10.03502016
Br       0.96230216      15.46694215      11.57448877
C        1.79515010      -1.79515010       1.79515010
N        2.95755282      -1.26852034       2.23595624
C        3.72568851      -2.05113087       3.01844517
C        3.38256625      -3.34088763       3.37907834
C        2.17610944      -3.87302436       2.91278069
C        1.36575206      -3.07725700       2.10015181
C        1.80505313      -5.23074802       3.29381839
N        2.44115408      -6.05007835       4.11098186
C        1.66729546      -7.17946445       4.10753576
C        1.82068282      -8.39216078       4.78484980
C        0.87497032      -9.40727744       4.56507065
N        0.99426406     -10.64068439       5.22831074
C        2.03127147     -11.35698206       4.91506850
C        2.31531661     -12.64374613       5.58002205
C        3.45445974     -13.34498886       5.16288100
C        3.79436392     -14.56447986       5.76168910
C        5.01916948     -15.30449335       5.30956236
C        2.98477149     -15.06773580       6.78769937
C        1.84770099     -14.36613435       7.20590992
C        1.50665829     -13.15146795       6.60530226
O        0.39083810     -12.48227820       7.03889199
C       -0.22053079      -9.18198355       3.71659452
C       -0.39747618      -7.96534146       3.03892878
C        0.57890799      -7.00515429       3.26984124
O        0.65817617      -5.74841905       2.74194045
H        4.65450454      -1.60210880       3.35979273
H        4.04470972      -3.92203011       4.01505113
H        0.41956053      -3.44586613       1.71768708
H        2.65559419      -8.53741136       5.46036294
H        2.75237248     -11.02459395       4.14410569
H        4.08602725     -12.94620951       4.37140380
H        5.12083802     -16.26590139       5.82320906
H        5.91542977     -14.71180829       5.51887856
H        4.96289530     -15.50455103       4.23459430
H        3.24068797     -16.01148455       7.26544419
H        0.31293444     -11.65311657       6.51523531
H       -0.95426463      -9.97544289       3.58191200
H       -1.23898623      -7.78515717       2.38215470
C        1.05485666     -14.93123510       8.26688071
C        0.39084953     -15.40450697       9.15544375
Br      -0.68279383     -16.16974756      10.59217503
C       -0.00445707       0.01189536      -1.78238275
H       -0.66409135       0.67374010      -2.43557963
H        0.65740317      -0.63156657      -2.45157240
C       -0.90989263      -0.90692880      -0.91072765
C        0.90977584       0.90977584      -0.90977584
C       -0.00465871       1.77757030       0.00794375
H       -0.66225468       2.44313916      -0.64384735
H        0.64322798       2.43503045       0.67728295
C       -1.78241447       0.00034974      -0.00472694
H       -2.45427497      -0.65498947       0.64260836
H       -2.43311707       0.67328779      -0.65473579
C       -0.91132561       0.90220522       0.91563759
C       -0.01476271      -0.02253852       1.78660255
H       -0.67934791      -0.69751639       2.42135241
H        0.63392994       0.61504881       2.47327442
C        0.01484550      -1.77751727      -0.01636693
H        0.67870853      -2.42144646      -0.68295456
H       -0.62264859      -2.45592969       0.64226336
C        1.78714474       0.01002794       0.00389507
H        2.44202412       0.67113390       0.66197326
H        2.45385902      -0.65136977      -0.64189061
C        0.91606151      -0.90478549       0.90901405
