157
Properties=species:S:1:pos:R:3 pbc="F F F"
C        0.00000000       0.00000000       0.00000000
C        0.88524608       0.88524608      -0.88524608
N        0.61059065       2.20680299      -0.91492369
C        1.39760598       2.97772088      -1.69022561
C        2.44870642       2.48385646      -2.44025727
C        2.71937704       1.11225019      -2.40057519
C        1.91459933       0.29620161      -1.60264785
C        3.83005745       0.58515429      -3.18469571
N        4.70464157       1.25615511      -3.91170553
C        5.51578530       0.28128552      -4.42751278
C        6.62779370       0.37107550      -5.26911212
C        7.26056920      -0.81613460      -5.67317173
N        8.38238517      -0.76732492      -6.51848687
C        8.17166042      -0.31585137      -7.71780090
C        9.27068638      -0.15038699      -8.68907333
C        8.93706519       0.33510650      -9.96044584
C        9.93142295       0.53281010     -10.92658777
C        9.56272119       1.05731941     -12.28347251
C       11.26309775       0.24647070     -10.60092614
C       11.59675154      -0.23670300      -9.32998464
Br      13.42380260      -0.59840439      -8.96305418
C       10.60375056      -0.43773548      -8.36770134
O       10.95960180      -0.90611047      -7.12880489
C        6.80521620      -2.05694763      -5.20006664
C        5.69825050      -2.16461826      -4.34344976
C        5.09275865      -0.96419839      -3.99563118
O        4.00608744      -0.77751291      -3.19024907
H        1.15508012       4.03696582      -1.69464806
H        3.04871055       3.15791348      -3.04545484
H        2.08867919      -0.77286018      -1.53758265
H        6.98460029       1.33961169      -5.59944444
H        7.15916975      -0.02432258      -8.05651286
H        7.90224514       0.56493254     -10.20675081
H       10.43176949       1.10065089     -12.94781601
H        9.15131791       2.06808245     -12.19700419
H        8.81799519       0.40429286     -12.75004050
H       12.04635527       0.40101633     -11.34053304
H       10.14223708      -0.97656287      -6.58590004
H        7.32793366      -2.96168978      -5.50713431
H        5.34082390      -3.11807963      -3.97586930
C       -0.88524608      -0.88524608      -0.88524608
N       -0.84758840      -2.21717062      -0.66755832
C       -1.63350834      -2.98645364      -1.44559049
C       -2.45619452      -2.48140260      -2.43522304
C       -2.48261413      -1.09961864      -2.64996965
C       -1.67481513      -0.28509000      -1.85354366
C       -3.35226769      -0.55935321      -3.68828656
N       -4.21291399      -1.20977800      -4.44981023
C       -4.75211192      -0.23130694      -5.24116474
C       -5.72365625      -0.30108927      -6.24323580
C       -6.06849383       0.87700240      -6.92611491
N       -7.04176710       0.84789446      -7.93967448
C       -6.73708564       0.16485049      -9.00137480
C       -7.68997654      -0.00344410     -10.11595208
C       -7.26097862      -0.75074389     -11.22089501
C       -8.11853005      -0.96516719     -12.30712358
C       -7.64950733      -1.77081176     -13.48319403
C       -9.41199132      -0.42953118     -12.26897209
C       -9.84136707       0.31544063     -11.16410674
Br     -11.60954148       1.00588445     -11.18479537
C       -8.98396821       0.53262218     -10.08237040
O       -9.43275669       1.26085029      -9.01038982
C       -5.47674901       2.09954846      -6.57113466
C       -4.50919373       2.19013789      -5.55802616
C       -4.18481125       0.99332648      -4.93270667
O       -3.28143377       0.79155263      -3.92894246
H       -1.58444971      -4.05393307      -1.24831121
H       -3.06853045      -3.15436053      -3.02918790
H       -1.66463820       0.79242294      -1.98118640
H       -6.19272295      -1.24826451      -6.48266896
H       -5.75307245      -0.33033851      -9.10794908
H       -6.25816151      -1.17289745     -11.24286953
H       -8.40303765      -1.80041113     -14.27678762
H       -7.44120466      -2.80033365     -13.17486623
H       -6.73959542      -1.32972203     -13.90301110
H      -10.09048518      -0.59348640     -13.10393306
H       -8.70651168       1.30307378      -8.34813635
H       -5.77906077       3.00355834      -7.09787576
H       -4.04777140       3.12915041      -5.27999257
C       -0.88524608       0.88524608       0.88524608
N       -2.11005068       0.41635660       1.20591005
C       -2.87825021       1.19791473       1.98938752
C       -2.47525128       2.43143117       2.46613771
C       -1.20437020       2.90431156       2.12352067
C       -0.39285057       2.10862590       1.31197234
C       -0.77043396       4.20201364       2.62745985
N       -1.40729715       5.00806514       3.45713992
C       -0.55999347       6.07530242       3.58928771
C       -0.67947370       7.24691514       4.34159248
C        0.34687346       8.20262931       4.26185049
N        0.26376033       9.39331081       5.00399664
C       -0.69619210      10.20337731       4.67404054
C       -0.93971234      11.45910346       5.41055691
C       -1.99470109      12.26876629       4.96915014
C       -2.29354408      13.46616532       5.63111142
C       -3.42855480      14.32306904       5.15188928
C       -1.52885736      13.83753918       6.74409804
C       -0.47603368      13.02759832       7.18640118
Br       0.51225025      13.59676042       8.70394223
C       -0.17559676      11.83503903       6.52308064
O        0.85716862      11.05785448       6.98161036
C        1.48366607       7.95610136       3.47589993
C        1.62634238       6.77886042       2.72456395
C        0.57241093       5.87928733       2.81731504
O        0.44645061       4.67070796       2.19456625
H       -3.85805728       0.79591423       2.23272249
H       -3.14100544       3.01476700       3.09630644
H        0.60176934       2.43215073       1.02302027
H       -1.54977512       7.40651158       4.96736972
H       -1.37985963       9.97812048       3.83337993
H       -2.59231323      11.97229123       4.10932403
H       -3.50173375      15.25203731       5.72646533
H       -4.37609997      13.78475341       5.25555116
H       -3.28013744      14.59136575       4.10082536
H       -1.75408337      14.76269030       7.27113097
H        0.91646171      10.26289252       6.40514344
H        2.27773590       8.70099784       3.45011626
H        2.49945186       6.58274336       2.11532207
C        0.88524608      -0.88524608       0.88524608
N        2.14751109      -0.46661450       1.11819174
C        2.91584882      -1.24736455       1.90233909
C        2.47698055      -2.43200990       2.46382971
C        1.16739307      -2.85327830       2.21153104
C        0.35507177      -2.05755138       1.40082565
C        0.69587470      -4.09891539       2.80511736
N        1.33445201      -4.89476679       3.64328342
C        0.44253656      -5.90734475       3.87470229
C        0.54253447      -7.04414064       4.68130622
C       -0.53358495      -7.94667321       4.70451808
N       -0.47136042      -9.10106393       5.50384361
C        0.42750321      -9.97671861       5.16938813
C        0.64611557     -11.20480167       5.95845548
C        1.63384695     -12.09074467       5.50802591
C        1.90661168     -13.26737036       6.21683879
C        2.96974899     -14.20659742       5.72716670
C        1.18446596     -13.54079412       7.38523449
C        0.19895557     -12.65464380       7.83643382
Br      -0.73464442     -13.09297638       9.43012044
C       -0.07571572     -11.48282864       7.12660351
O       -1.04201346     -10.62959401       7.59471567
C       -1.69669030      -7.68001464       3.96501087
C       -1.81948573      -6.53632202       3.16024571
C       -0.71800096      -5.69059003       3.15160237
O       -0.56445588      -4.52344531       2.45983417
H        3.92628067      -0.88630780       2.07410553
H        3.14500537      -3.01736630       3.08970720
H       -0.66859554      -2.34186084       1.18013636
H        1.43573421      -7.21801074       5.26991148
H        1.07596061      -9.83094338       4.28445606
H        2.19905979     -11.87033098       4.60453771
H        3.02637157     -15.10791996       6.34594487
H        3.94745954     -13.71493410       5.75401091
H        2.75222475     -14.51938427       4.70071953
H        1.39038761     -14.44880595       7.94871108
H       -1.09166012      -9.86275105       6.98048332
H       -2.52763324      -8.38193579       4.01907564
H       -2.71276025      -6.32504473       2.58632908
