109
Properties=species:S:1:pos:R:3 pbc="F F F"
C        0.00000000       0.00000000       0.00000000
C        0.91792740       0.91792740      -0.91792740
C        2.12005481       0.13655929      -1.42094903
O        3.04564804      -0.03558690      -0.34396498
C        4.18639451      -0.74096429      -0.61047671
C        5.01271118      -0.95255766       0.49350216
C        6.20861055      -1.65581025       0.35617561
C        6.59117182      -2.15280441      -0.89175083
C        5.77596291      -1.94395735      -2.00329076
O        6.02004072      -2.36576472      -3.28087311
C        7.19937456      -3.12546280      -3.55534867
C        7.00730639      -4.60220668      -3.24754132
C        4.57469480      -1.23773122      -1.85521328
H        1.20594506       1.77260582      -0.30084120
H        0.28024509       1.24359548      -1.74330070
H        2.60069973       0.72410992      -2.21242133
H        1.80940467      -0.83665493      -1.82053244
H        4.71957396      -0.56912155       1.46777180
H        6.84261577      -1.81630740       1.22454879
H        7.52772519      -2.69471135      -0.95243173
H        8.06686081      -2.71412251      -3.02757890
H        7.41614029      -2.98941152      -4.62157060
H        6.55655203      -4.78330869      -2.26937935
H        7.94951738      -5.15002048      -3.33333607
H        3.96320906      -1.09427718      -2.73983449
C        6.11843937      -5.20553811      -4.20645040
C        5.37401325      -5.71082817      -5.00953675
Br       4.17033917      -6.52783948      -6.30805946
C       -0.91792740      -0.91792740      -0.91792740
C       -1.94492695      -0.07618454      -1.65645164
O       -2.95700911       0.33667192      -0.73368893
C       -3.96013379       1.12692469      -1.22269783
C       -4.87241030       1.57083878      -0.26507985
C       -5.94481028       2.38183413      -0.63364854
C       -6.11628435       2.75479530      -1.96862919
C       -5.21374070       2.31387777      -2.93543338
O       -5.25505883       2.59323801      -4.27332829
C       -6.28832679       3.44036708      -4.78130072
C       -5.94456820       4.91296851      -4.62104135
C       -4.13765331       1.50072276      -2.55524631
H       -1.38139774      -1.64809993      -0.24989441
H       -0.23776022      -1.41706966      -1.61231139
H       -2.40400306      -0.70203514      -2.43119278
H       -1.46864110       0.79610866      -2.12074973
H       -4.74340265       1.28479701       0.77592504
H       -6.64742821       2.72334694       0.12232169
H       -6.96257459       3.38722317      -2.21009415
H       -7.25567769       3.20130035      -4.32593987
H       -6.39830590       3.19413381      -5.84412729
H       -5.58828288       5.16572555      -3.62006535
H       -6.79282361       5.54863597      -4.88864533
H       -3.45319076       1.17647284      -3.33204845
C       -4.88257626       5.28344393      -5.52021935
C       -3.99315800       5.59371710      -6.27328092
Br      -2.55504391       6.09540256      -7.49091780
C       -0.91792740       0.91792740       0.91792740
C       -0.16821103       1.33855952       2.17079258
O       -0.07890731       0.21873553       3.05638327
C        0.58797191       0.40894535       4.23493349
C        0.71974743      -0.73547566       5.02187446
C        1.37695813      -0.67637096       6.24995378
C        1.90743993       0.53301491       6.70454326
C        1.77824367       1.68441923       5.92912075
O        2.24070163       2.93217792       6.24367281
C        2.96050479       3.12648878       7.46327644
C        4.43037651       2.76474391       7.31827363
C        1.11785606       1.61492433       4.69510859
H       -1.80823421       0.32626450       1.14489337
H       -1.18279651       1.78139841       0.30294635
H       -0.74301171       2.13400623       2.66021303
H        0.83258884       1.70901093       1.91686007
H        0.30992622      -1.68007264       4.67267947
H        1.47535457      -1.57565963       6.85277378
H        2.41140997       0.53288970       7.66396584
H        2.49197247       2.58187872       8.29041096
H        2.85866129       4.18785972       7.71910095
H        4.59061439       1.79884496       6.83439211
H        4.94102034       2.78921203       8.28464128
H        1.03618164       2.52880461       4.11614340
C        5.10890525       3.73253161       6.49572531
C        5.67717307       4.54305380       5.80684109
Br       6.59601406       5.85359963       4.69297358
C        0.91792740      -0.91792740       0.91792740
C        0.13984391      -2.12599544       1.41172379
O       -0.77686412      -1.70495560       2.42593464
C       -1.58245512      -2.66445323       2.97390883
C       -2.51505952      -2.18673138       3.89497951
C       -3.39496119      -3.06313882       4.52844705
C       -3.34751813      -4.43038281       4.24725356
C       -2.41701977      -4.92037043       3.33194565
O       -2.25186018      -6.22605131       2.96095797
C       -3.11063728      -7.22618836       3.51370935
C       -4.42954442      -7.31958766       2.76259780
C       -1.53800308      -4.03161563       2.69856431
H        1.26127583      -0.28114089       1.73697535
H        1.76102211      -1.21607579       0.29004337
H        0.85340168      -2.83454001       1.84928929
H       -0.39628917      -2.60586117       0.58371017
H       -2.55756514      -1.12322532       4.11702042
H       -4.11882288      -2.67822889       5.24235357
H       -4.05086873      -5.07494514       4.76136915
H       -3.26882788      -7.06360686       4.58553823
H       -2.56889190      -8.17670255       3.44048873
H       -4.89864228      -6.34795681       2.59330816
H       -5.12791167      -7.98950391       3.27124073
H       -0.82757440      -4.44557435       1.99076643
C       -4.22623492      -7.88963153       1.45595506
C       -4.05596321      -8.36704327       0.36164177
Br      -3.78064826      -9.13897767      -1.40777026
