133
Properties=species:S:1:pos:R:3 pbc="F F F"
C        0.00000000       0.00000000       0.00000000
C        0.88235700       0.88235700      -0.88235700
C        2.26272976       0.69565965      -0.88004913
C        3.06683706       1.50340461      -1.68132831
C        2.48806959       2.49145746      -2.48418603
C        1.09785822       2.68099899      -2.49536150
C        0.29865490       1.86775164      -1.67947934
C        0.46783789       3.71820466      -3.30970486
C        1.02313577       4.26421933      -4.45051017
S       -0.00393237       5.47987421      -5.08433866
C       -1.13413095       5.17727305      -3.82128512
N       -0.78179354       4.22426104      -2.97840368
C       -2.37242920       5.91575899      -3.72256875
N       -2.60442887       7.03750599      -4.37722005
C       -3.87826425       7.49059465      -4.09415119
C       -4.63332863       6.70498201      -3.24182016
S       -3.67107079       5.37352273      -2.73200897
C       -6.01114905       6.89308545      -2.76926975
C       -6.88069852       5.80534584      -2.58271467
C       -8.19909953       6.00094124      -2.15955702
C       -8.67016619       7.28914387      -1.92012495
C       -7.81947247       8.37507801      -2.10395252
Br      -8.45682471      10.12669871      -1.78386440
C       -6.50070949       8.18565607      -2.52544814
H        2.71947070      -0.06815838      -0.25623674
H        4.14617233       1.37057114      -1.67669288
H        3.14625440       3.11840535      -3.08035144
H       -0.78022254       2.00619015      -1.66656487
H        1.95695125       4.02832787      -4.93895296
H       -4.21783328       8.40720495      -4.56190995
H       -6.54892306       4.78699273      -2.77823735
H       -8.85653979       5.14617949      -2.02320988
H       -9.69688232       7.43424742      -1.59410689
H       -5.85471218       9.05054003      -2.65329602
C       -0.88235700      -0.88235700      -0.88235700
C       -1.75587176      -1.79186548      -0.29070129
C       -2.55669919      -2.59904502      -1.09582577
C       -2.48409259      -2.49134050      -2.48828000
C       -1.61038872      -1.57334056      -3.09048943
C       -0.80347851      -0.77132277      -2.27108460
C       -1.49992280      -1.45302724      -4.54279736
C       -2.49042505      -1.81091809      -5.43652212
S       -1.95408247      -1.56195182      -7.04424621
C       -0.45453294      -0.96334520      -6.44654908
N       -0.35258381      -0.93770625      -5.13058111
C        0.59064436      -0.51721231      -7.33933059
N        0.61197540      -0.79287956      -8.62939301
C        1.72062442      -0.21264735      -9.21445866
C        2.53746714       0.52854704      -8.37948773
S        1.90984562       0.43636148      -6.78066801
C        3.76042916       1.27968125      -8.69131655
C        4.05433855       2.50178874      -8.06348928
C        5.20825969       3.22083880      -8.39049723
C        6.08505596       2.73038028      -9.35453887
C        5.80368728       1.52236076      -9.98560611
Br       6.98998663       0.85491598     -11.29864101
C        4.65280312       0.79885816      -9.66205600
H       -1.81516564      -1.88304372       0.79066031
H       -3.23331469      -3.31888561      -0.64123605
H       -3.10674070      -3.15143494      -3.08683555
H       -0.11234210      -0.06087839      -2.71931199
H       -3.47894882      -2.20094296      -5.24434030
H        1.87608992      -0.34921153     -10.27816000
H        3.38055111       2.92153133      -7.31838946
H        5.41639959       4.16545852      -7.89470769
H        6.97871805       3.29575699      -9.60594704
H        4.46100262      -0.14607080     -10.16405570
C       -0.88235700       0.88235700       0.88235700
C       -2.25912482       0.90715987       0.67215384
C       -3.06233302       1.71520068       1.47403628
C       -2.48704441       2.49189583       2.48477284
C       -1.10159676       2.46724600       2.70537595
C       -0.30171676       1.65645280       1.88771632
C       -0.47140060       3.28291166       3.74143514
C       -1.11590923       3.75281241       4.86914363
S       -0.04621493       4.70720864       5.80685693
C        1.21179860       4.40538044       4.67084538
N        0.86899656       3.63420929       3.65565845
C        2.53642057       4.95585690       4.84646221
N        2.81156903       5.93500631       5.68685988
C        4.16153476       6.22447166       5.64354469
C        4.92723736       5.45214469       4.78856621
S        3.88732759       4.35835643       3.96343206
C        6.37305767       5.49098380       4.53328002
C        7.11152086       4.31860149       4.30028136
C        8.49266192       4.36727696       4.08678369
C        9.15817051       5.59013489       4.10713825
C        8.43836090       6.75826926       4.33964971
Br       9.33934388       8.42080174       4.37228055
C        7.05791939       6.71591485       4.55239925
H       -2.71251513       0.30854570      -0.11351177
H       -4.13671068       1.74784871       1.30887697
H       -3.13997838       3.12754996       3.07748286
H        0.77558036       1.63165359       2.03645925
H       -2.13521422       3.59833597       5.19068189
H        4.54346043       7.01077117       6.28397087
H        6.62428420       3.34498673       4.29560450
H        9.04606892       3.44855334       3.91036515
H       10.23227639       5.62050889       3.94323950
H        6.51832314       7.64394609       4.72350093
C        0.88235700      -0.88235700       0.88235700
C        1.93285248      -0.30982065       1.59576540
C        2.73955122      -1.11557941       2.39643934
C        2.49086094      -2.48901119       2.48384095
C        1.43092405      -3.07110173       1.77219292
C        0.63006077      -2.25235016       0.96347495
C        1.15993427      -4.50606815       1.82974498
C        1.53375608      -5.33317250       2.87093669
S        1.07493126      -6.94927088       2.53607837
C        0.37992185      -6.43848879       1.04601658
N        0.47061814      -5.14333245       0.80692059
C       -0.25943247      -7.37511165       0.15021936
N       -0.11338632      -8.68325594       0.24042755
C       -0.86253871      -9.30715827      -0.73813797
C       -1.60277255      -8.48046344      -1.56421736
S       -1.29019527      -6.84760927      -1.12295310
C       -2.50690386      -8.82673577      -2.66862577
C       -3.68711979      -8.10316019      -2.90867841
C       -4.55358509      -8.46122219      -3.94623837
C       -4.25498465      -9.55224277      -4.75815549
C       -3.09036312     -10.27872844      -4.52880725
Br      -2.68337995     -11.76388678      -5.62676842
C       -2.22014998      -9.92485724      -3.49431255
H        2.13375079       0.75624333       1.53004159
H        3.56808191      -0.67740119       2.94795326
H        3.15288957      -3.09182105       3.10030057
H       -0.19011013      -2.68663786       0.39600476
H        2.04393560      -5.08931481       3.79098168
H       -0.84664567     -10.38937159      -0.79144431
H       -3.95856785      -7.25594591      -2.28107103
H       -5.46277555      -7.88969766      -4.11407253
H       -4.93426142      -9.82681113      -5.56107772
H       -1.31299942     -10.50413672      -3.34201342
