101
Properties=species:S:1:pos:R:3 pbc="F F F"
C        0.00000000       0.00000000       0.00000000
C        0.88147680       0.88147680      -0.88147680
C        2.17411643       0.46733692      -1.20170936
C        2.98204622       1.27405438      -2.00975216
C        2.51291794       2.49865772      -2.49517656
N        3.36446615       3.24418045      -3.33473416
C        3.50371431       4.50971962      -3.08441366
C        4.36944036       5.36272211      -3.92526770
C        4.44931736       6.72475600      -3.61861821
C        5.26392077       7.55315736      -4.39174397
Br       5.37584630       9.39617893      -3.98406798
C        5.99712307       7.03777606      -5.46130403
C        5.91490020       5.67837770      -5.76598988
C        5.10252194       4.84542653      -5.00116844
O        5.06841872       3.52549820      -5.35825161
C        1.20159523       2.88186192      -2.16935399
F        0.70347152       4.03963270      -2.63221433
C        0.38733484       2.08918813      -1.36361165
H        2.56154032      -0.48013399      -0.83482080
H        3.98617152       0.94456659      -2.26657093
H        2.99274410       5.00197673      -2.23632489
H        3.88302665       7.13975871      -2.78945882
H        6.63240077       7.68284175      -6.06335318
H        6.48111187       5.26780071      -6.59774106
H        4.43441266       3.07799712      -4.75260290
H       -0.61811665       2.42436938      -1.13138050
C       -0.88147680      -0.88147680      -0.88147680
C       -1.00913866      -2.24014155      -0.59388250
C       -1.81703417      -3.04821491      -1.40060368
C       -2.49369326      -2.51231296      -2.50074599
N       -3.32065582      -3.37378561      -3.24893934
C       -3.21088390      -3.34543540      -4.54152829
C       -4.05053261      -4.20953413      -5.39736343
C       -3.90313798      -4.10546892      -6.78408467
C       -4.67846509      -4.91360459      -7.61675241
Br      -4.48577645      -4.77745410      -9.49286267
C       -5.59346358      -5.82111605      -7.08162353
C       -5.73948871      -5.92234732      -5.69743176
C       -4.97157166      -5.11789426      -4.85965099
O       -5.16889793      -5.26868694      -3.51458365
C       -2.35879672      -1.13785338      -2.75616104
F       -3.00825705      -0.57778587      -3.78927563
C       -1.55553932      -0.32230325      -1.96229205
H       -0.49155675      -2.67995264       0.25528226
H       -1.92322221      -4.10543260      -1.16865423
H       -2.48785761      -2.68636814      -5.05681996
H       -3.19543304      -3.40236265      -7.21444849
H       -6.19712405      -6.45134802      -7.73012364
H       -6.45029232      -6.62521284      -5.27114848
H       -4.58530973      -4.61809702      -3.06160594
H       -1.47444460       0.73387652      -2.19706515
C       -0.88147680       0.88147680       0.88147680
C       -0.29817489       1.86445545       1.68053237
C       -1.10514022       2.67283898       2.48787356
C       -2.49284072       2.50226959       2.51164191
N       -3.25002491       3.37516479       3.31819107
C       -4.15497411       2.85433192       4.08854156
C       -4.99864584       3.70297747       4.95580686
C       -5.97626791       3.07916617       5.73725749
C       -6.78344419       3.85491583       6.57046207
Br      -8.10849163       3.01865944       7.62894216
C       -6.62407081       5.23981143       6.63232092
C       -5.64845345       5.86012210       5.85069223
C       -4.84060705       5.09369961       5.01481024
O       -3.90781777       5.76827704       4.27607371
C       -3.05318451       1.51521124       1.68441539
F       -4.38311845       1.33224226       1.65995784
C       -2.26091907       0.70169837       0.87751719
H        0.77875171       2.01490314       1.68007569
H       -0.64919746       3.44548107       3.10263051
H       -4.33056694       1.76368924       4.13678954
H       -6.11215425       2.00193662       5.69815331
H       -7.25233746       5.84433750       7.28192075
H       -5.51748707       6.93817734       5.89098922
H       -3.44313028       5.10281026       3.71907215
H       -2.73328584      -0.05262702       0.25697442
C        0.88147680      -0.88147680       0.88147680
C        1.24156885      -0.44532837       2.15626549
C        2.04857221      -1.25261975       2.96466079
C        2.50828575      -2.49141943       2.50704704
N        3.28599869      -3.27108991       3.38629217
C        4.37941034      -3.79468286       2.92375440
C        5.24397393      -4.63459404       3.77886221
C        6.39134952      -5.19378309       3.20755896
C        7.22970038      -5.98617019       3.99295152
Br       8.78215840      -6.74689719       3.22703763
C        6.93651278      -6.22323460       5.33645579
C        5.79031982      -5.66494385       5.90400412
C        4.94722727      -4.87521033       5.12667931
O        3.84140380      -4.36303081       5.74773391
C        2.11622153      -2.91119918       1.22539042
F        2.51707163      -4.10320912       0.75503779
C        1.31499756      -2.11603056       0.40910650
H        0.89759159       0.51479310       2.53342863
H        2.31993501      -0.91510143       3.96227259
H        4.71510029      -3.63331256       1.88263287
H        6.63123728      -5.01850783       2.16249907
H        7.58988648      -6.83996126       5.94874796
H        5.55278005      -5.84477944       6.94909414
H        3.33489157      -3.86079120       5.06932992
H        1.03894471      -2.47540811      -0.57671959
