109
Properties=species:S:1:pos:R:3 pbc="F F F"
C        0.00000000       0.00000000       0.00000000
C        0.88147680       0.88147680      -0.88147680
C        2.17411643       0.46733692      -1.20170936
C        2.98204622       1.27405438      -2.00975216
C        2.51291794       2.49865772      -2.49517656
N        3.36446615       3.24418045      -3.33473416
C        3.50371431       4.50971962      -3.08441366
C        4.36944036       5.36272211      -3.92526770
C        4.44931736       6.72475600      -3.61861821
C        5.26392077       7.55315736      -4.39174397
C        5.99712307       7.03777606      -5.46130403
C        5.91490020       5.67837770      -5.76598988
C        5.10252194       4.84542653      -5.00116844
O        5.06841872       3.52549820      -5.35825161
C        1.20159523       2.88186192      -2.16935399
F        0.70347152       4.03963270      -2.63221433
C        0.38733484       2.08918813      -1.36361165
H        2.56154032      -0.48013399      -0.83482080
H        3.98617152       0.94456659      -2.26657093
H        2.99274410       5.00197673      -2.23632489
H        3.88302665       7.13975871      -2.78945882
H        6.63240077       7.68284175      -6.06335318
H        6.48111187       5.26780071      -6.59774106
H        4.43441266       3.07799712      -4.75260290
H       -0.61811665       2.42436938      -1.13138050
C        5.34915734       8.95670519      -4.08127948
C        5.42054297      10.13217651      -3.82126548
Br       5.53596750      12.03281420      -3.40084482
C       -0.88147680      -0.88147680      -0.88147680
C       -0.89280180      -2.26254366      -0.68781726
C       -1.70059743      -3.07069754      -1.49455780
C       -2.49292768      -2.51172703      -2.50209751
N       -3.31162418      -3.37848344      -3.25327316
C       -3.30075692      -3.25244746      -4.54464322
C       -4.13991663      -4.11529647      -5.40221707
C       -4.10389147      -3.90460544      -6.78419465
C       -4.88121808      -4.70859365      -7.61901036
C       -5.68862289      -5.71671949      -7.09086078
C       -5.72367079      -5.92431377      -5.71128322
C       -4.95307912      -5.12489610      -4.87114168
O       -5.03864100      -5.38290537      -3.53062215
C       -2.47310197      -1.11663990      -2.66306927
F       -3.23505368      -0.53625045      -3.60401442
C       -1.67139709      -0.30050252      -1.86823501
H       -0.28409779      -2.72037575       0.08824642
H       -1.71561603      -4.14642391      -1.33526909
H       -2.66561636      -2.50716261      -5.05826675
H       -3.48071530      -3.12254303      -7.20898584
H       -6.29378344      -6.34370343      -7.74110883
H       -6.35025046      -6.70608468      -5.29031850
H       -4.46943734      -4.72360505      -3.07197030
H       -1.68147991       0.77251636      -2.02866968
C       -4.84894946      -4.49541482      -9.04277773
C       -4.82192449      -4.31687756     -10.23518290
Br      -4.77822740      -4.02819791     -12.16320122
C       -0.88147680       0.88147680       0.88147680
C       -0.29662884       1.85185288       1.69468100
C       -1.10358478       2.66023290       2.50203507
C       -2.49292684       2.50209916       2.51172623
N       -3.24951641       3.37453940       3.31932496
C       -4.16610569       2.85503826       4.07670365
C       -5.00994737       3.70347050       4.94401230
C       -6.00023386       3.08156097       5.71089674
C       -6.80793073       3.85707834       6.54381302
C       -6.63663696       5.23985073       6.61971547
C       -5.64838497       5.85827978       5.85260303
C       -4.83990950       5.09210687       5.01710053
O       -3.89438296       5.76480116       4.29298440
C       -3.05459886       1.52768886       1.67052341
F       -4.38585185       1.35706571       1.63240099
C       -2.26239191       0.71430978       0.86343293
H        0.78157101       1.99248606       1.70531207
H       -0.64630532       3.42311245       3.12789126
H       -4.35196495       1.76564874       4.11343202
H       -6.14547346       2.00601016       5.66076056
H       -7.26531209       5.84418625       7.26909737
H       -5.50806834       6.93469026       5.90389504
H       -3.43066664       5.10018388       3.73416217
H       -2.73587607      -0.03005281       0.23180998
C       -7.83002061       3.22219675       7.33492466
C       -8.68602088       2.69048341       7.99748066
Br     -10.07010093       1.83074791       9.06877769
C        0.88147680      -0.88147680       0.88147680
C        1.09095896      -0.53592712       2.21627663
C        1.89787144      -1.34334461       3.02463671
C        2.50683485      -2.49143748       2.50847990
N        3.27616125      -3.28045597       3.38676355
C        4.44831139      -3.66502726       2.98450895
C        5.31139938      -4.50425976       3.84177103
C        6.54955031      -4.90956421       3.33357705
C        7.38813087      -5.69742794       4.12326328
C        7.00574304      -6.08127045       5.40918968
C        5.76916513      -5.67641120       5.91369145
C        4.92544406      -4.89232433       5.13134852
O        3.72865669      -4.53474277       5.68876906
C        2.26470124      -2.82281123       1.16529866
F        2.81202277      -3.92827331       0.63502247
C        1.46530642      -2.02620628       0.34862192
H        0.62931226       0.35285796       2.63977282
H        2.05180354      -1.07757683       4.06792866
H        4.85433441      -3.38058489       1.99612642
H        6.85957249      -4.61904630       2.33362539
H        7.65920350      -6.69449596       6.02489624
H        5.46189055      -5.97125833       6.91350475
H        3.23704233      -4.01661767       5.01135268
H        1.30774247      -2.31514447      -0.68525370
C        8.66377042      -6.11866608       3.60470551
C        9.73211855      -6.47145302       3.17041339
Br      11.45954712      -7.04187966       2.46819975
