113
Properties=species:S:1:pos:R:3 pbc="F F F"
C        0.00000000       0.00000000       0.00000000
C        0.88185933       0.88185933      -0.88185933
C        2.19345990       0.50009183      -1.14856146
C        2.99429096       1.30911566      -1.95667730
C        2.49328438       2.50063667      -2.49442059
N        3.31693096       3.27334191      -3.32827001
C        4.00048130       4.21091399      -2.74743430
C        4.88099201       5.10094367      -3.53010724
C        5.62761017       6.06358838      -2.84462411
C        6.46458671       6.91801926      -3.56408688
Br       7.48326022       8.21923042      -2.64468840
C        6.55979382       6.82412592      -4.95316253
C        5.81048284       5.86454500      -5.63480466
C        4.97504634       5.00629252      -4.92491174
O        4.26919200       4.09265072      -5.65867918
C        1.15989792       2.87194353      -2.24321981
C        0.59031825       4.13856808      -2.81758010
C        0.36350932       2.05981746      -1.41966970
H        2.59897980      -0.42209813      -0.74131996
H        4.01496657       1.00734948      -2.17740939
H        3.94447840       4.38181898      -1.65570222
H        5.56250955       6.14930467      -1.76356809
H        7.21170183       7.48941630      -5.51367528
H        5.87585650       5.78360154      -6.71678173
H        3.74330357       3.55129235      -5.02516703
H       -0.50164389       4.15604681      -2.73802568
H        0.83668581       4.22881979      -3.88066638
H        0.98642055       5.00536949      -2.27911710
H       -0.66471880       2.34469360      -1.20919772
C       -0.88185933      -0.88185933      -0.88185933
C       -0.59299382      -2.23714503      -1.01197435
C       -1.40350611      -3.03867600      -1.81790180
C       -2.49727733      -2.49170473      -2.49935960
N       -3.30897044      -3.33368450      -3.27588796
C       -2.99726414      -3.42978910      -4.53177636
C       -3.79661863      -4.26766179      -5.44776251
C       -3.38666016      -4.36884343      -6.78031906
C       -4.12862040      -5.15293312      -7.66513933
Br      -3.57808035      -5.30086127      -9.46823741
C       -5.27124911      -5.82958759      -7.23624556
C       -5.67986972      -5.72364334      -5.90631944
C       -4.94423798      -4.94586656      -5.01614606
O       -5.40486533      -4.88623212      -3.72942445
C       -2.80139875      -1.12672579      -2.34693673
C       -3.97676348      -0.51423319      -3.05546975
C       -1.97496680      -0.32361016      -1.54441952
H        0.25069918      -2.67957640      -0.48932441
H       -1.18826434      -4.10003781      -1.91142330
H       -2.13368557      -2.88734300      -4.96097103
H       -2.50007010      -3.84653709      -7.12877513
H       -5.84918034      -6.44041687      -7.92519620
H       -6.56913543      -6.24523657      -5.56186778
H       -4.77909977      -4.32065307      -3.22001012
H       -4.21834193       0.47235098      -2.64643765
H       -4.86926468      -1.13784096      -2.93906634
H       -3.75287909      -0.39746443      -4.12056362
H       -2.19432325       0.73542716      -1.43027644
C       -0.88185933       0.88185933       0.88185933
C       -1.89116088       0.30430007       1.64665224
C       -2.69291742       1.11500058       2.45216592
C       -2.49541615       2.50037419       2.49255131
N       -3.29993794       3.28081187       3.33779308
C       -4.37120588       3.78279477       2.80482895
C       -5.27840142       4.63999316       3.59364835
C       -6.44071095       5.11545384       2.97965786
C       -7.31170880       5.92993140       3.70505266
Br      -8.88972974       6.57267970       2.88476959
C       -7.03333625       6.27567294       5.02807307
C       -5.87049394       5.80240380       5.63693476
C       -4.99734744       4.98719432       4.92170884
O       -3.87668558       4.56248633       5.58134999
C       -1.45905105       3.07869535       1.73731487
C       -1.21464249       4.56119427       1.77062966
C       -0.66405710       2.25904023       0.91989915
H       -2.05809136      -0.76927452       1.62938479
H       -3.47363919       0.66558904       3.06049722
H       -4.63896303       3.59526050       1.74777606
H       -6.66971148       4.85576417       1.94990666
H       -7.71164102       6.90990660       5.59324579
H       -5.64308257       6.06669016       6.66646705
H       -3.37166378       3.98725055       4.96084863
H       -0.24175990       4.81420550       1.33646320
H       -1.21317406       4.93212360       2.80087432
H       -1.98989570       5.08162482       1.19938662
H        0.13156350       2.69819508       0.32254094
C        0.88185933      -0.88185933       0.88185933
C        0.42441130      -2.13316425       1.28453764
C        1.23544869      -2.93559952       2.08903570
C        2.49845245      -2.49154419       2.49834501
N        3.29964790      -3.33788928       3.28100571
C        3.19843840      -3.19382886       4.56656233
C        4.01225667      -4.01362095       5.48616531
C        3.82781431      -3.84633995       6.86166839
C        4.58823072      -4.60841395       7.75004819
Br       4.34111712      -4.39351703       9.61254489
C        5.52820433      -5.52731627       7.28156166
C        5.71249449      -5.68934222       5.90799578
C        4.95639516      -4.93529247       5.01456297
O        5.19200910      -5.14506509       3.68344771
C        2.96833518      -1.23669440       2.07003168
C        4.32508136      -0.73891580       2.48246926
C        2.14261074      -0.42947180       1.27091395
H       -0.55230920      -2.49523895       0.97527189
H        0.88645702      -3.91864998       2.39461845
H        2.51067739      -2.45371561       5.01760660
H        3.10077058      -3.13370288       7.24090884
H        6.12045502      -6.12103261       7.97330578
H        6.44293924      -6.40115940       5.53214113
H        4.57748537      -4.56088487       3.18139272
H        4.63438636       0.12054457       1.87858680
H        5.08304792      -1.51726045       2.34586362
H        4.30770591      -0.43058292       3.53261832
H        2.49171517       0.54758481       0.94504216
