142
Properties=species:S:1:pos:R:3 pbc="F F F"
C        1.79176335       1.79176335      -1.79176335
C        3.10336393       1.40999585      -2.05846549
C        3.90419498       2.21901968      -2.86658132
C        3.40318841       3.41054070      -3.40432462
N        4.22683499       4.18324594      -4.23817404
C        4.91038533       5.12081802      -3.65733833
C        5.79089603       6.01084770      -4.44001127
C        6.53751419       6.97349240      -3.75452813
C        7.37449074       7.82792329      -4.47399090
C        7.46969784       7.73402994      -5.86306655
C        6.72038686       6.77444902      -6.54470869
C        5.88495036       5.91619654      -5.83481577
O        5.17909603       5.00255475      -6.56858320
C        2.06980195       3.78184756      -3.15312383
C        1.50022227       5.04847210      -3.72748412
C        1.27341335       2.96972148      -2.32957372
H        3.50888382       0.48780589      -1.65122399
H        4.92487060       1.91725351      -3.08731342
H        4.85438242       5.29172301      -2.56560624
H        6.47241358       7.05920870      -2.67347211
H        8.12160585       8.39932033      -6.42357930
H        6.78576053       6.69350556      -7.62668576
H        4.65320760       4.46119637      -5.93507106
H        0.40826013       5.06595083      -3.64792970
H        1.74658984       5.13872382      -4.79057040
H        1.89632457       5.91527351      -3.18902113
H        0.24518522       3.25459763      -2.11910174
C        8.15018444       8.81876214      -3.77389259
C        8.79982791       9.64858968      -3.18756025
Br       9.85024646      10.99035063      -2.23951044
C       -1.79176335      -1.79176335      -1.79176335
C       -1.20740446      -2.75258549      -2.61183531
C       -2.01847131      -3.55695395      -3.41437072
C       -3.40979912      -3.40190440      -3.40635020
N       -4.19625972      -4.24936780      -4.20262745
C       -4.48670706      -3.81244900      -5.38938560
C       -5.32843177      -4.60932169      -6.30400154
C       -5.57062615      -4.10851056      -7.58639802
C       -6.36598662      -4.84320918      -8.46720913
C       -6.92194236      -6.06360251      -8.08124947
C       -6.68125962      -6.55903336      -6.79925158
C       -5.88684153      -5.83412340      -5.91499774
O       -5.69579736      -6.37941633      -4.67502029
C       -3.99949714      -2.44665301      -2.55862318
C       -5.49100015      -2.26644088      -2.51873747
C       -3.17716878      -1.63259958      -1.76294020
H       -0.12947167      -2.88844325      -2.62999878
H       -1.56615367      -4.31695606      -4.04632779
H       -4.12423048      -2.83291843      -5.75456276
H       -5.14566868      -3.15919989      -7.90022582
H       -7.54132488      -6.63602299      -8.76715761
H       -7.11051348      -7.50779212      -6.48764625
H       -5.10583014      -5.76936374      -4.17428115
H       -5.79749814      -1.67490339      -1.64973913
H       -5.99786564      -3.23415760      -2.44386082
H       -5.83009835      -1.74884737      -3.42167350
H       -3.62271821      -0.88257045      -1.11359594
C       -6.61569971      -4.33567493      -9.79146452
C       -6.82483442      -3.91061499     -10.90052842
Br      -7.16298757      -3.22332902     -12.69379093
C       -1.79176335       1.79176335       1.79176335
C       -1.22549473       2.49600194       2.85032860
C       -2.03604367       3.30185354       3.65189877
C       -3.41037705       3.40264969       3.40502698
N       -4.18934400       4.24690930       4.21200167
C       -4.75142515       3.69437545       5.24274107
C       -5.61306953       4.48144417       6.14724130
C       -6.15515478       3.84361643       7.26676351
C       -6.97509386       4.56704887       8.13426220
C       -7.26076420       5.91174731       7.89428283
C       -6.72103648       6.54455733       6.77395076
C       -5.89990823       5.83133064       5.90472380
O       -5.40841480       6.51515279       4.82666638
C       -3.97601464       2.70898345       2.31977524
C       -5.44579645       2.80818020       2.02220185
C       -3.15722323       1.89065312       1.52483221
H       -0.16048982       2.43138718       3.05603670
H       -1.59475070       3.86321881       4.47146801
H       -4.61350026       2.62173088       5.47648053
H       -5.94268053       2.79689792       7.46551594
H       -7.89924162       6.47538933       8.56987453
H       -6.93816997       7.59117493       6.57660695
H       -4.83754667       5.89212075       4.31980761
H       -5.67715637       2.42029672       1.02468757
H       -5.77806650       3.85125152       2.04656604
H       -6.01635311       2.22907000       2.75519611
H       -3.58729673       1.34040235       0.69118552
C       -7.53303668       3.91768569       9.29211679
C       -8.00031379       3.37384402      10.26182002
Br      -8.75586136       2.49449805      11.82974811
C        1.79176335      -1.79176335       1.79176335
C        3.14827664      -1.50653331       1.91701532
C        3.94908647      -2.31490996       2.72579956
C        3.40269434      -3.41039628       3.40496310
N        4.23135385      -4.18264179       4.23425933
C        4.78318139      -5.22054724       3.68481304
C        5.65431842      -6.11841324       4.46902334
C        6.25753327      -7.19521316       3.81278830
C        7.08276457      -8.05901321       4.53462715
C        7.30704232      -7.86193994       5.89781207
C        6.70056859      -6.78825537       6.55072060
C        5.87801671      -5.92002336       5.83792260
O        5.31556146      -4.89155980       6.54311272
C        2.02675952      -3.68207216       3.29594166
C        1.40943772      -4.84313533       4.02360545
C        1.22925357      -2.87225312       2.47120186
H        3.58958322      -0.65950928       1.39882120
H        5.00625046      -2.08723645       2.83595061
H        4.61775613      -5.47350618       2.62044935
H        6.09089685      -7.36193041       2.75226713
H        7.94983113      -8.53451850       6.46015585
H        6.86717151      -6.62622641       7.61255394
H        4.78145759      -4.35900719       5.90901025
H        0.31688158      -4.77088052       4.03437856
H        1.74024675      -4.86852059       5.06711671
H        1.68531862      -5.78207281       3.53322779
H        0.16685804      -3.08166432       2.37036223
C        7.71128365      -9.16754341       3.86401210
C        8.23766838     -10.09593746       3.30237199
Br       9.08878798     -11.59707211       2.39424744
C       -0.00445707       0.01189536      -1.78238275
H       -0.66409135       0.67374010      -2.43557963
H        0.65740317      -0.63156657      -2.45157240
C       -0.90989263      -0.90692880      -0.91072765
C        0.90977584       0.90977584      -0.90977584
C       -0.00465871       1.77757030       0.00794375
H       -0.66225468       2.44313916      -0.64384735
H        0.64322798       2.43503045       0.67728295
C       -1.78241447       0.00034974      -0.00472694
H       -2.45427497      -0.65498947       0.64260836
H       -2.43311707       0.67328779      -0.65473579
C       -0.91132561       0.90220522       0.91563759
C       -0.01476271      -0.02253852       1.78660255
H       -0.67934791      -0.69751639       2.42135241
H        0.63392994       0.61504881       2.47327442
C        0.01484550      -1.77751727      -0.01636693
H        0.67870853      -2.42144646      -0.68295456
H       -0.62264859      -2.45592969       0.64226336
C        1.78714474       0.01002794       0.00389507
H        2.44202412       0.67113390       0.66197326
H        2.45385902      -0.65136977      -0.64189061
C        0.91606151      -0.90478549       0.90901405
