134
Properties=species:S:1:pos:R:3 pbc="F F F"
C        1.79184424       1.79184424      -1.79184424
C        1.51022903       3.15306920      -1.90813056
C        2.31497493       3.96506449      -2.71082452
C        3.39873961       3.40839960      -3.39373032
O        4.18549603       4.20480655      -4.17743185
C        3.67748675       2.04216353      -3.27883985
C        4.82071327       1.44618239      -4.00122386
N        5.06640816       0.17442921      -3.93980042
C        6.18030440      -0.29000842      -4.64947502
C        5.99813061      -1.04850265      -5.80443489
C        7.09784893      -1.57280282      -6.48479473
C        8.39247895      -1.34667091      -6.00571615
Br       9.83266564      -2.12019900      -6.97243049
C        8.60049434      -0.58755965      -4.84409823
C        9.96812557      -0.33685753      -4.27504592
C        7.47802828      -0.07409071      -4.17094482
C        2.87028324       1.23075327      -2.47218295
H        0.66707064       3.58880897      -1.37744374
H        2.08173899       5.02300508      -2.78931462
H        3.84368595       5.11504471      -4.15785706
H        5.45739546       2.12782753      -4.59619488
H        4.99223024      -1.24088231      -6.16623183
H        6.93310287      -2.16817735      -7.37932650
H        9.92760119       0.35575760      -3.42724229
H       10.62355052       0.11616030      -5.02546335
H       10.40776939      -1.27320780      -3.91667477
H        7.60371052       0.49201519      -3.25067873
H        3.08624821       0.16886250      -2.37821996
C       -1.79184424      -1.79184424      -1.79184424
C       -1.74941182      -3.17822221      -1.64379476
C       -2.55579912      -3.98963220      -2.44543263
C       -3.40127690      -3.40720366      -3.39238898
O       -4.19026813      -4.20277231      -4.17469399
C       -3.43979323      -2.01665639      -3.54204052
C       -4.32974522      -1.39411985      -4.54425444
N       -4.34521680      -0.11018071      -4.72524028
C       -5.23269855       0.38243497      -5.68950741
C       -4.73937570       0.87971703      -6.89440417
C       -5.60665485       1.43363930      -7.83682528
C       -6.97884056       1.50088714      -7.57357077
Br      -8.08708224       2.29684383      -8.89465871
C       -7.49839355       1.00820002      -6.36683940
C       -8.95980332       1.07927608      -6.02578672
C       -6.60593629       0.45997683      -5.42892293
C       -2.63173634      -1.20546799      -2.73601512
H       -1.09203127      -3.63403981      -0.90725227
H       -2.51070098      -5.06715847      -2.31619924
H       -4.02782359      -5.13565181      -3.95311232
H       -4.98106807      -2.06683462      -5.13351518
H       -3.67177216       0.84557195      -7.09137955
H       -5.20015851       1.82283295      -8.76692646
H       -9.17756873       0.55552737      -5.08855972
H       -9.56359798       0.60302216      -6.80459835
H       -9.27063096       2.12167786      -5.90228326
H       -6.97310881       0.09789820      -4.47119384
H       -2.66172268      -0.12393431      -2.84767368
C       -1.79184424       1.79184424       1.79184424
C       -3.13002728       1.45152943       1.98987209
C       -3.94057510       2.25258790       2.79770094
C       -3.40566676       3.39177765       3.40342513
O       -4.20003254       4.17333419       4.19436770
C       -2.06419312       3.73360741       3.20068961
C       -1.49274674       4.93933654       3.83603624
N       -0.26362858       5.29364468       3.62336452
C        0.18642748       6.44417813       4.28202035
C        0.41491848       7.61219425       3.55678708
C        0.92563546       8.74651592       4.18896038
C        1.21993617       8.71533730       5.55612306
Br       1.94025633      10.29107185       6.33408161
C        0.99980148       7.55030310       6.30653130
C        1.32230741       7.45767959       7.77094179
C        0.49051619       6.41717913       5.64821945
C       -1.25339516       2.92796374       2.39186056
H       -3.54879029       0.56512255       1.51941052
H       -4.98005217       1.97231592       2.94169060
H       -5.09941976       3.80388120       4.21328676
H       -2.15517026       5.52705139       4.49919622
H        0.20495992       7.63125557       2.49128411
H        1.10372485       9.64480901       3.60316786
H        0.98805170       6.50423007       8.19442271
H        0.81555080       8.25000479       8.33072018
H        2.40361392       7.52804555       7.92680473
H        0.33796024       5.48933767       6.19502702
H       -0.20927628       3.18920282       2.23485156
C        1.79184424      -1.79184424       1.79184424
C        3.17249587      -1.59340797       1.80552495
C        3.98372523      -2.39487440       2.61226432
C        3.40687014      -3.39219094       3.40180845
O        4.20218515      -4.17427205       4.19127723
C        2.02225183      -3.59223106       3.38400724
C        1.40579385      -4.64778207       4.21454360
N        0.12960884      -4.87450128       4.17652766
C       -0.35840065      -5.88747010       5.01070155
C       -0.79342294      -7.09030263       4.45718316
C       -1.34274592      -8.08288102       5.26970574
C       -1.46807865      -7.87264878       6.64695406
Br      -2.25376106      -9.26079442       7.67786376
C       -1.03864011      -6.66910807       7.22656497
C       -1.17380311      -6.38458485       8.69553222
C       -0.49395336      -5.68030699       6.38852875
C        1.21114198      -2.78631376       2.57576372
H        3.62396659      -0.81760466       1.19175210
H        5.05671008      -2.22605331       2.61129530
H        5.13147506      -3.91403560       4.07107706
H        2.07620573      -5.23636693       4.86884521
H       -0.71434999      -7.24667791       3.38525184
H       -1.68296401      -9.01063550       4.81658053
H       -0.69279215      -5.43803718       8.96535605
H       -0.69096774      -7.16767926       9.28846265
H       -2.23037048      -6.30949641       8.97211042
H       -0.18043738      -4.72447770       6.80236412
H        0.13404501      -2.93717054       2.56211511
C       -0.00445707       0.01189536      -1.78238275
H       -0.66409135       0.67374010      -2.43557963
H        0.65740317      -0.63156657      -2.45157240
C       -0.90989263      -0.90692880      -0.91072765
C        0.90977584       0.90977584      -0.90977584
C       -0.00465871       1.77757030       0.00794375
H       -0.66225468       2.44313916      -0.64384735
H        0.64322798       2.43503045       0.67728295
C       -1.78241447       0.00034974      -0.00472694
H       -2.45427497      -0.65498947       0.64260836
H       -2.43311707       0.67328779      -0.65473579
C       -0.91132561       0.90220522       0.91563759
C       -0.01476271      -0.02253852       1.78660255
H       -0.67934791      -0.69751639       2.42135241
H        0.63392994       0.61504881       2.47327442
C        0.01484550      -1.77751727      -0.01636693
H        0.67870853      -2.42144646      -0.68295456
H       -0.62264859      -2.45592969       0.64226336
C        1.78714474       0.01002794       0.00389507
H        2.44202412       0.67113390       0.66197326
H        2.45385902      -0.65136977      -0.64189061
C        0.91606151      -0.90478549       0.90901405
