150
Properties=species:S:1:pos:R:3 pbc="F F F"
C        1.79090106       1.79090106      -1.79090106
C        1.56334932       3.15621672      -1.85254318
C        2.37683901       3.95671026      -2.66078709
C        3.45415343       3.42393210      -3.39382143
N        4.23650376       4.23019625      -4.24601576
C        4.37899298       5.65396072      -3.91517724
C        5.29603759       6.31685046      -4.91708750
C        6.25894586       7.23839101      -4.47279098
C        7.06664229       7.91331578      -5.39097846
C        6.92309290       7.69418875      -6.75919074
C        5.96639345       6.78756849      -7.21350896
C        5.16706777       6.10711147      -6.29805211
O        4.26089114       5.21904905      -6.80870305
C        3.63732642       2.02119881      -3.36507798
C        4.65113121       1.28401573      -4.20363162
C        2.80795709       1.22187714      -2.54900606
H        0.75286756       3.61168718      -1.29008971
H        2.13549976       5.01449782      -2.70118903
H        5.16516681       3.82135753      -4.34900880
H        4.78650850       5.75518287      -2.90213407
H        3.41744068       6.17660950      -3.96704215
H        6.37496512       7.43574622      -3.40926182
H        7.54525893       8.22202615      -7.47685904
H        5.84366703       6.60850278      -8.27833437
H        3.92244170       4.67740445      -6.06134732
H        5.18442503       0.55119901      -3.58741676
H        5.41223538       1.92779002      -4.64721299
H        4.14092447       0.75611523      -5.01607098
H        2.95873668       0.14430761      -2.52213727
C        8.05101975       8.85151345      -4.91728430
C        8.87543587       9.63725400      -4.52056544
Br      10.20844700      10.90773002      -3.87910461
C       -1.79090106      -1.79090106      -1.79090106
C       -3.01276866      -1.31790535      -2.24143522
C       -3.81304489      -2.13102322      -3.05026826
C       -3.40028451      -3.41369170      -3.45793074
N       -4.23588818      -4.24624282      -4.23058476
C       -5.20484895      -3.61054915      -5.13273285
C       -5.95361524      -4.67453114      -5.90182919
C       -6.20591689      -4.49235143      -7.27185953
C       -6.95751177      -5.43123272      -7.98219204
C       -7.47863387      -6.55427198      -7.34356655
C       -7.24154075      -6.74315372      -5.98277644
C       -6.48416755      -5.81222213      -5.27584167
O       -6.27409454      -6.06610588      -3.94844282
C       -2.17691926      -3.90376882      -2.94291513
C       -1.66600943      -5.30473397      -3.16803516
C       -1.37866203      -3.07622078      -2.12395748
H       -3.36297642      -0.32731592      -1.96435211
H       -4.77589527      -1.72724360      -3.34804773
H       -3.66727472      -4.90152647      -4.76673196
H       -4.67739557      -2.94238184      -5.82404802
H       -5.95152343      -3.03231161      -4.57725729
H       -5.82172783      -3.61333084      -7.78491449
H       -8.06911709      -7.28362691      -7.89140013
H       -7.64343421      -7.61446602      -5.47260395
H       -5.57188644      -5.45292742      -3.63637961
H       -0.60505730      -5.27657819      -3.44140530
H       -2.17792886      -5.84023049      -3.96907904
H       -1.77716691      -5.88797477      -2.24796899
H       -0.43352462      -3.45359573      -1.73806121
C       -7.20286750      -5.23013668      -9.38681332
C       -7.40835293      -5.06171873     -10.56318365
Br      -7.74060549      -4.78940117     -12.46527496
C       -1.79090106       1.79090106       1.79090106
C       -3.12050678       1.45808958       1.99351287
C       -3.92038999       2.26978023       2.80416615
C       -3.40747558       3.40564569       3.45878568
N       -4.23366703       4.24673435       4.23231438
C       -5.40816289       3.65447157       4.88549648
C       -6.11767859       4.70895232       5.70334465
C       -6.60287162       4.38566892       6.98158731
C       -7.32282189       5.32608395       7.72203069
C       -7.58196155       6.59228847       7.20222238
C       -7.11219057       6.92325970       5.93202063
C       -6.38604628       5.98926480       5.19692027
O       -5.93917785       6.38356541       3.96589998
C       -2.06404339       3.76361646       3.19594336
C       -1.41068014       5.02449120       3.70360722
C       -1.26649802       2.93948300       2.37285926
H       -3.55327827       0.58069959       1.52066659
H       -4.96338536       1.98483907       2.90296218
H       -3.67272999       4.72706761       4.93573555
H       -5.08983133       2.82529740       5.52869670
H       -6.12995413       3.27991785       4.15122034
H       -6.42529035       3.39651361       7.39816921
H       -8.14709954       7.32440291       7.77264167
H       -7.30858348       7.90724693       5.51467377
H       -5.28586832       5.71596892       3.65935623
H       -0.41894573       4.79459108       4.10950399
H       -1.96454318       5.52057016       4.50212505
H       -1.29738439       5.73638647       2.87933981
H       -0.23063885       3.21320934       2.18133337
C       -7.80916169       4.97855093       9.03210489
C       -8.21647127       4.68749202      10.12929203
Br      -8.87505641       4.21687438      11.90335083
C        1.79090106      -1.79090106       1.79090106
C        1.38266457      -3.07469738       2.11474728
C        2.19714025      -3.87627207       2.92092405
C        3.44830440      -3.43338436       3.39021819
N        4.23902192      -4.22898288       4.24471096
C        4.11675876      -5.68893314       4.14243904
C        5.08479346      -6.34594580       5.09923630
C        5.81563363      -7.47136107       4.68313315
C        6.66115805      -8.13367951       5.57609897
C        6.78421970      -7.69853103       6.89372167
C        6.05897758      -6.58726859       7.32122472
C        5.22287392      -5.92057857       6.42877886
O        4.55374493      -4.82783589       6.90706242
C        3.82423034      -2.10085725       3.09851562
C        5.06078561      -1.43272356       3.64526939
C        2.99277910      -1.29886742       2.28719377
H        0.43165770      -3.46275763       1.76022911
H        1.81619657      -4.86096029       3.17402975
H        5.22081447      -3.97260728       4.14211140
H        4.32813482      -6.00258004       3.11311057
H        3.11268888      -6.02838757       4.42001588
H        5.72040625      -7.83670716       3.66285976
H        7.43613701      -8.21496127       7.59304584
H        6.14524848      -6.23843325       8.34682245
H        4.17541770      -4.35021412       6.13556165
H        5.58214046      -0.89726405       2.84363629
H        5.78509268      -2.12520101       4.07694470
H        4.77685708      -0.71461396       4.42163964
H        3.29056840      -0.27762289       2.05699027
C        7.40555684      -9.28320438       5.13105628
C        8.02899083     -10.24593147       4.75833302
Br       9.03703086     -11.80257974       4.15567103
C       -0.00445707       0.01189536      -1.78238275
H       -0.66409135       0.67374010      -2.43557963
H        0.65740317      -0.63156657      -2.45157240
C       -0.90989263      -0.90692880      -0.91072765
C        0.90977584       0.90977584      -0.90977584
C       -0.00465871       1.77757030       0.00794375
H       -0.66225468       2.44313916      -0.64384735
H        0.64322798       2.43503045       0.67728295
C       -1.78241447       0.00034974      -0.00472694
H       -2.45427497      -0.65498947       0.64260836
H       -2.43311707       0.67328779      -0.65473579
C       -0.91132561       0.90220522       0.91563759
C       -0.01476271      -0.02253852       1.78660255
H       -0.67934791      -0.69751639       2.42135241
H        0.63392994       0.61504881       2.47327442
C        0.01484550      -1.77751727      -0.01636693
H        0.67870853      -2.42144646      -0.68295456
H       -0.62264859      -2.45592969       0.64226336
C        1.78714474       0.01002794       0.00389507
H        2.44202412       0.67113390       0.66197326
H        2.45385902      -0.65136977      -0.64189061
C        0.91606151      -0.90478549       0.90901405
