150
Properties=species:S:1:pos:R:3 pbc="F F F"
C        1.79121883       1.79121883      -1.79121883
C        2.78170313       1.21254590      -2.57729984
C        3.57526398       2.02117439      -3.39670864
C        3.38848940       3.41236986      -3.44289631
C        2.38872350       3.97598295      -2.63608129
C        1.59339762       3.16925640      -1.81322362
C        4.18977096       4.22780203      -4.35788738
N        4.39274516       5.58014843      -4.23692360
H        4.07642854       6.18604832      -3.48799460
N        5.07562980       6.13878644      -5.25687092
C        5.40289800       5.08773392      -6.03437107
C        4.88568361       3.88259938      -5.49927276
C        6.15532316       5.22363801      -7.29278761
O        6.55260401       4.23299954      -7.89851662
N        6.28576931       6.53923740      -7.69309342
C        6.84599563       7.02072997      -8.89073437
C        7.54009744       6.21474403      -9.79866355
C        8.04524433       6.74983280     -10.98776308
C        7.85783057       8.09721605     -11.28277702
C        7.17505599       8.90561329     -10.37772718
Br       6.90531877      10.73388973     -10.78020879
C        6.67762801       8.37875616      -9.18319374
H        2.94191139       0.13750955      -2.57007707
H        4.34071840       1.54370261      -4.00490551
H        2.18478381       5.04307706      -2.65222591
H        0.81466580       3.62465230      -1.20666045
H        4.97429770       2.90008838      -5.94335841
H        5.83873172       7.20095509      -7.06290255
H        7.71439946       5.15978401      -9.60919884
H        8.58141037       6.10717011     -11.68207371
H        8.24431580       8.50222025     -12.21399450
H        6.14050952       9.02603533      -8.49545612
C       -1.79121883      -1.79121883      -1.79121883
C       -1.63804569      -1.76046063      -3.17304255
C       -2.43491894      -2.58223526      -3.97599282
C       -3.38942334      -3.44356336      -3.41076887
C       -3.53253912      -3.45303349      -2.01521513
C       -2.73726752      -2.63021458      -1.20839553
C       -4.16509860      -4.34026554      -4.27009623
N       -5.35786587      -4.92624578      -3.92570554
H       -5.89117686      -4.78414985      -3.07514476
N       -5.83676888      -5.80050245      -4.83401583
C       -4.95724953      -5.71607371      -5.85167974
C       -3.91562340      -4.80642262      -5.54550973
C       -5.07207338      -6.51909361      -7.08058180
O       -4.33280516      -6.31306044      -8.03825457
N       -6.02922176      -7.50985840      -6.97901998
C       -6.32409976      -8.51797851      -7.91538170
C       -5.79348127      -8.55117062      -9.20885313
C       -6.10208892      -9.59989510     -10.08085619
C       -6.94257999     -10.62907379      -9.66616986
C       -7.48036712     -10.59579082      -8.38223852
Br      -8.61164350     -11.99892420      -7.80884960
C       -7.18409684      -9.54493108      -7.51054998
H       -0.90005878      -1.11171618      -3.63772305
H       -2.29299161      -2.54234908      -5.05398582
H       -4.23746924      -4.11832397      -1.52429356
H       -2.85434890      -2.66347181      -0.12815785
H       -3.06462122      -4.57940224      -6.17372102
H       -6.49546992      -7.53196741      -6.07515203
H       -5.13724124      -7.76850439      -9.57763668
H       -5.67899641      -9.60907052     -11.08258727
H       -7.16842585     -11.44555714     -10.34654756
H       -7.60811227      -9.54366814      -6.51022056
C       -1.79121883       1.79121883       1.79121883
C       -2.73339140       2.63092823       1.20722924
C       -3.55104357       3.42359449       2.01850896
C       -3.43996720       3.38575343       3.41803494
C       -2.47775090       2.53725652       3.98578032
C       -1.65630840       1.74338956       3.17617967
C       -4.35234333       4.17742407       4.24569296
N       -4.12215793       4.53728868       5.55037058
H       -3.28745708       4.36379158       6.09922280
N       -5.15065227       5.17359230       6.14704258
C       -6.05846377       5.30666094       5.15987828
C       -5.59102206       4.71631253       3.96022116
C       -7.37188101       5.94234879       5.35751898
O       -8.11147211       6.16809665       4.40455141
N       -7.65304770       6.17534742       6.68970502
C       -8.85153075       6.66449212       7.24143709
C       -9.90426421       7.17432260       6.47491821
C      -11.08304589       7.61565451       7.08413981
C      -11.22233740       7.54800959       8.46747665
C      -10.17344883       7.04936421       9.23558341
Br     -10.36292566       6.94209573      11.11439590
C       -8.98932490       6.61709691       8.63315608
H       -2.84911471       2.67308594       0.12729737
H       -4.28283005       4.06916441       1.53733205
H       -2.36687136       2.45009980       5.06311561
H       -0.92685756       1.08212210       3.63699890
H       -6.13631540       4.65346183       3.02796726
H       -6.91609906       5.86697202       7.31951828
H       -9.83927781       7.25047977       5.39362473
H      -11.89125623       8.00798264       6.47141533
H      -12.14585979       7.88308952       8.93158125
H       -8.18706023       6.22368456       9.25125618
C        1.79121883      -1.79121883       1.79121883
C        1.91215916      -3.14801797       1.51137174
C        2.73431245      -3.94866036       2.31017421
C        3.44519629      -3.40567720       3.39288207
C        3.30270434      -2.03619738       3.66188601
C        2.47898618      -1.23197475       2.86491671
C        4.34912622      -4.25329584       4.17303830
N        4.78759493      -3.97776715       5.44445510
H        4.51387095      -3.20088283       6.03571769
N        5.70100659      -4.84640994       5.92387063
C        5.79821904      -5.77490531       4.95187864
C        4.96058420      -5.45011237       3.85685918
C        6.70589243      -6.93142593       5.03443042
O        6.66394589      -7.82543827       4.19473600
N        7.59095563      -6.83644497       6.09069953
C        8.65645417      -7.70245461       6.39855120
C        8.86611287      -8.92834408       5.75904806
C        9.96419773      -9.72827359       6.09036889
C       10.86670691      -9.30792545       7.06319128
C       10.65725940      -8.09221123       7.70892583
Br      11.88822025      -7.50972184       9.02147520
C        9.55597392      -7.29401475       7.38958922
H        1.38233086      -3.59369510       0.67347206
H        2.81494366      -5.00633538       2.06804748
H        3.84930638      -1.55973002       4.47105037
H        2.39381044      -0.17020168       3.08196643
H        4.87515063      -6.00843278       2.93416107
H        7.48070416      -5.98520727       6.63667793
H        8.18663817      -9.29924879       4.99749534
H       10.11128773     -10.67795112       5.58141534
H       11.72307164      -9.93074134       7.30671758
H        9.41678053      -6.34510223       7.90011821
C       -0.00445707       0.01189536      -1.78238275
H       -0.66409135       0.67374010      -2.43557963
H        0.65740317      -0.63156657      -2.45157240
C       -0.90989263      -0.90692880      -0.91072765
C        0.90977584       0.90977584      -0.90977584
C       -0.00465871       1.77757030       0.00794375
H       -0.66225468       2.44313916      -0.64384735
H        0.64322798       2.43503045       0.67728295
C       -1.78241447       0.00034974      -0.00472694
H       -2.45427497      -0.65498947       0.64260836
H       -2.43311707       0.67328779      -0.65473579
C       -0.91132561       0.90220522       0.91563759
C       -0.01476271      -0.02253852       1.78660255
H       -0.67934791      -0.69751639       2.42135241
H        0.63392994       0.61504881       2.47327442
C        0.01484550      -1.77751727      -0.01636693
H        0.67870853      -2.42144646      -0.68295456
H       -0.62264859      -2.45592969       0.64226336
C        1.78714474       0.01002794       0.00389507
H        2.44202412       0.67113390       0.66197326
H        2.45385902      -0.65136977      -0.64189061
C        0.91606151      -0.90478549       0.90901405
