137
Properties=species:S:1:pos:R:3 pbc="F F F"
C        0.00000000       0.00000000       0.00000000
C        0.88131481       0.88131481      -0.88131481
C        1.87179911       0.30264187      -1.66739582
C        2.66535996       1.11127037      -2.48680462
C        2.47858538       2.50246583      -2.53299228
C        1.47881948       3.06607892      -1.72617727
C        0.68349359       2.25935238      -0.90331959
C        3.27986693       3.31789801      -3.44798335
N        3.48284113       4.67024441      -3.32701957
H        3.16652451       5.27614430      -2.57809058
N        4.16572578       5.22888241      -4.34696690
C        4.49299397       4.17782990      -5.12446704
C        3.97577959       2.97269535      -4.58936874
C        5.24541913       4.31373399      -6.38288358
O        5.64269999       3.32309552      -6.98861259
N        5.37586528       5.62933338      -6.78318940
C        5.93609161       6.11082594      -7.98083035
C        6.63019341       5.30484000      -8.88875953
C        7.13534031       5.83992878     -10.07785905
C        6.94792654       7.18731202     -10.37287300
C        6.26515197       7.99570927      -9.46782316
C        5.76772398       7.46885213      -8.27328971
H        2.03200737      -0.77239447      -1.66017305
H        3.43081437       0.63379858      -3.09500149
H        1.27487978       4.13317303      -1.74232188
H       -0.09523823       2.71474828      -0.29675643
H        4.06439367       1.99018435      -5.03345439
H        4.92882770       6.29105106      -6.15299853
H        6.80449544       4.24987998      -8.69929481
H        7.67150634       5.19726609     -10.77216969
H        7.33441178       7.59231623     -11.30409048
H        5.23060550       8.11613130      -7.58555209
C        6.05978859       9.38766037      -9.77425095
C        5.88779677      10.55341943     -10.03088423
Br       5.60970053      12.43835322     -10.44583854
C       -0.88131481      -0.88131481      -0.88131481
C       -0.52886368      -1.10519690      -2.20777622
C       -1.32904647      -1.92737787      -3.00701061
C       -2.48555012      -2.53590797      -2.49258541
C       -2.82658472      -2.29039812      -1.15409283
C       -2.02834294      -1.46631975      -0.35150288
C       -3.26956062      -3.44366878      -3.33251890
N       -4.58061096      -3.78658374      -3.11291041
H       -5.19873478      -3.42884363      -2.39318098
N       -5.06438101      -4.72317486      -3.95401922
C       -4.04662734      -4.93760263      -4.81106095
C       -2.92182968      -4.14814909      -4.46786491
C       -4.11742204      -5.91066524      -5.91394943
O       -3.22464224      -5.97633052      -6.75343534
N       -5.23183036      -6.72289143      -5.83366626
C       -5.55456332      -7.82110949      -6.65207508
C       -4.85735659      -8.14658911      -7.81984725
C       -5.20951323      -9.27164166      -8.57197325
C       -6.26142971     -10.08548183      -8.16120002
C       -6.96424693      -9.76048833      -7.00394913
C       -6.62372014      -8.63163912      -6.25450657
H        0.36637669      -0.65612706      -2.63003557
H       -1.02954322      -2.08974686      -4.04032436
H       -3.69611832      -2.75593554      -0.69832084
H       -2.30282134      -1.30066657       0.68722143
H       -1.96372886      -4.15404391      -4.97025964
H       -5.81974094      -6.52596543      -5.02717092
H       -4.03310224      -7.53909438      -8.18147362
H       -4.65493104      -9.50932761      -9.47668348
H       -6.52132396     -10.96370397      -8.74579055
H       -7.18032992      -8.40177374      -5.35018524
C       -8.04614491     -10.60580797      -6.56974704
C       -8.95223448     -11.31376317      -6.20610278
Br     -10.41730467     -12.45846684      -5.61812079
C       -0.88131481       0.88131481       0.88131481
C       -2.11784281       1.31149506       0.41249893
C       -2.93003310       2.10395648       1.22944536
C       -2.51992374       2.47319659       2.52092317
C       -1.26561648       2.03457414       2.97088505
C       -0.44918647       1.24224346       2.15473563
C       -3.41730267       3.24918337       3.37926225
N       -3.02376951       3.99106396       4.46527164
H       -2.07705839       4.15399689       4.78970411
N       -4.03659566       4.53375285       5.17122658
C       -5.13347778       4.19801100       4.46380213
C       -4.78716787       3.41570038       3.33497543
C       -6.49785780       4.57123845       4.87294045
O       -7.45485929       4.36733487       4.13221394
N       -6.54396248       5.09354371       6.15088187
C       -7.68575458       5.44995321       6.89204012
C       -8.97473424       5.49739509       6.35166362
C      -10.07286587       5.82874569       7.15151658
C       -9.89307797       6.11272887       8.50230473
C       -8.61041967       6.07540728       9.04285744
C       -7.50830818       5.75554495       8.24601269
H       -2.46600332       1.03240047      -0.57861784
H       -3.89446487       2.42433378       0.84081579
H       -0.91029102       2.26969738       3.97038630
H        0.51303084       0.90109097       2.52820635
H       -5.47877609       2.98755858       2.62169774
H       -5.63516815       5.13128123       6.60642790
H       -9.16281138       5.28800474       5.30285411
H      -11.06781904       5.85942345       6.71369964
H      -10.75328976       6.35870368       9.11882504
H       -6.51750573       5.72405851       8.69072465
C       -8.42152888       6.35800758      10.44216346
C       -8.26333285       6.59468533      11.61408225
Br      -8.00754324       6.97737323      13.50897582
C        0.88131481      -0.88131481       0.88131481
C        0.36998201      -2.06124131       1.41061348
C        1.18573026      -2.87483156       2.20287313
C        2.51812019      -2.52262444       2.47329887
C        3.01116206      -1.32432659       1.93558702
C        2.19645557      -0.50655140       1.14315859
C        3.36931891      -3.42452493       3.25190445
N        4.51832785      -3.05546735       3.90630992
H        4.90492396      -2.12220232       3.99363311
N        5.19715791      -4.07647797       4.46793921
C        4.41003048      -5.14622388       4.23903655
C        3.25774019      -4.77767168       3.50243181
C        4.76303107      -6.50938791       4.66961773
O        3.95851904      -7.43028227       4.56560678
N        6.06531798      -6.60238320       5.12068688
C        6.76078252      -7.76455847       5.50240691
C        6.15223676      -9.01410174       5.65745445
C        6.90716273     -10.13769770       6.00826770
C        8.28053669     -10.02340135       6.20417353
C        8.88950714      -8.77959657       6.05958067
C        8.13849238      -7.65156524       5.71980820
H       -0.65416540      -2.36461105       1.20934029
H        0.76311038      -3.79459612       2.60190793
H        4.04143592      -1.01680367       2.09213511
H        2.60259822       0.41074033       0.72440858
H        2.48214778      -5.44839201       3.15749263
H        6.57293841      -5.72183711       5.07810177
H        5.08381608      -9.15053605       5.51931810
H        6.41644080     -11.10130558       6.12319574
H        8.86108398     -10.90372683       6.46600767
H        8.63580288      -6.69255278       5.60393324
C       10.31166573      -8.65921328       6.25082091
C       11.50272354      -8.55839228       6.41098461
Br      13.42856329      -8.39537324       6.66995577
