129
Properties=species:S:1:pos:R:3 pbc="F F F"
C        0.00000000       0.00000000       0.00000000
C        0.88138247       0.88138247      -0.88138247
C        1.12320005       2.20320377      -0.51863279
C        1.92531106       3.00898325      -1.33278777
C        2.48623698       2.50055496      -2.51165684
C        2.23956709       1.17001274      -2.85900347
C        1.43778955       0.36063688      -2.04609579
N        3.26037302       3.37987448      -3.28519230
C        3.88306022       3.14005924      -4.49540860
O        3.90904484       2.08104004      -5.10969001
C        4.53786030       4.35121886      -5.02405253
N        4.53662433       5.52196394      -4.35377985
N        5.19815007       6.36118729      -5.17303764
H        5.30061622       7.32806566      -4.88491179
C        5.63405290       5.79158234      -6.34225734
C        5.21486478       4.47842409      -6.26273110
C        6.34039256       6.51668946      -7.39662615
C        7.18513570       7.59707526      -7.10270611
C        7.85087270       8.28155736      -8.12573988
C        7.67695278       7.88852568      -9.45036927
Br       8.57610461       8.81304729     -10.83149466
C        6.84662814       6.81630117      -9.76178922
C        6.18373576       6.13349862      -8.73746681
H        0.69250043       2.61719944       0.38900577
H        2.09994685       4.04011088      -1.03550485
H        2.65365089       0.72841190      -3.76024934
H        1.25547346      -0.67049424      -2.33751232
H        3.37412438       4.33739796      -2.95969132
H        5.36135164       3.69699456      -6.99640173
H        7.35897550       7.91144984      -6.07682024
H        8.50592162       9.11280575      -7.87752450
H        6.70600943       6.50225716     -10.79283188
H        5.53304312       5.30273213      -9.00313620
C       -0.88138247      -0.88138247      -0.88138247
C       -2.09224150      -0.39109077      -1.36170434
C       -2.89973897      -1.20453680      -2.16280632
C       -2.50405233      -2.50931204      -2.48508440
C       -1.28298021      -2.98490626      -2.00069683
C       -0.47209902      -2.17319678      -1.19922643
N       -3.38122540      -3.26928612      -3.27492829
C       -3.24558659      -4.57931077      -3.69363071
O       -2.29520965      -5.32209764      -3.48246759
C       -4.42711782      -5.03862809      -4.44738578
N       -5.47552149      -4.23020532      -4.70664131
N       -6.33470848      -5.02344760      -5.37421893
H       -7.22663807      -4.63141518      -5.65554040
C       -5.89374109      -6.30807804      -5.56607345
C       -4.64854145      -6.33726870      -4.97020982
C       -6.67019856      -7.35321818      -6.23029143
C       -7.57676930      -7.05116059      -7.25698718
C       -8.31397937      -8.06478731      -7.87940325
C       -8.14791881      -9.38838229      -7.47954663
Br      -9.14356590     -10.75680729      -8.32027337
C       -7.25008966      -9.70868696      -6.46594192
C       -6.51396772      -8.69400278      -5.84673070
H       -2.41884279       0.61622123      -1.11807252
H       -3.84398752      -0.80596000      -2.52561506
H       -0.93050783      -3.98704371      -2.22476058
H        0.47203363      -2.56488107      -0.82964410
H       -4.25697282      -2.84349374      -3.57074710
H       -3.97251642      -7.17919562      -4.90303590
H       -7.71011503      -6.03060442      -7.60652613
H       -9.00755577      -7.81150108      -8.67719502
H       -7.11354739     -10.73919309      -6.14835799
H       -5.82289532      -8.96498682      -5.05102931
C       -0.88138247       0.88138247       0.88138247
C       -1.43104435       0.36346251       2.05052975
C       -2.24367536       1.17231484       2.85109189
C       -2.51278830       2.49827353       2.48738694
C       -1.94862531       3.00565396       1.31430403
C       -1.13434332       2.19904921       0.51112970
N       -3.35607291       3.23695435       3.33241254
C       -3.80328710       4.53561859       3.17962236
O       -3.50718643       5.31224852       2.28033994
C       -4.74119363       4.92156147       4.25037659
N       -5.06529443       4.08730135       5.25977234
N       -5.95032711       4.79389949       5.98814841
H       -6.36188222       4.34997598       6.80173547
C       -6.21417299       6.04984525       5.50387434
C       -5.43212287       6.15322120       4.37067590
C       -7.16681827       6.98006262       6.10682728
C       -7.40213175       6.99332829       7.48945703
C       -8.32038797       7.88907863       8.04870333
C       -9.00869300       8.77909974       7.22805500
Br     -10.24853461       9.98849894       7.98361302
C       -8.78573136       8.78437568       5.85461150
C       -7.86677157       7.88912518       5.29880444
H       -1.23836580      -0.66415163       2.34647992
H       -2.66750654       0.74942388       3.75863217
H       -2.12429190       4.02707507       0.99094515
H       -0.70912715       2.61290058      -0.39953620
H       -3.73256247       2.77901902       4.15963217
H       -5.35964990       6.99725950       3.69783853
H       -6.86261463       6.32701313       8.15761782
H       -8.48490230       7.88811939       9.12323019
H       -9.31786000       9.47631708       5.20692140
H       -7.71285404       7.90439289       4.22166453
C        0.88138247      -0.88138247       0.88138247
C        0.31073981      -1.91288619       1.62141062
C        1.12094531      -2.71315032       2.43298646
C        2.50120859      -2.48596423       2.51127595
C        3.06011845      -1.45086500       1.75759985
C        2.25221259      -0.64847406       0.94383558
N        3.24108903      -3.31828532       3.36606545
C        4.59323969      -3.27667802       3.64861035
O        5.42076375      -2.51544708       3.16356405
C        4.97216121      -4.27875387       4.66221660
N        4.07927729      -5.13862768       5.19446314
N        4.80515624      -5.84744970       6.07976906
H        4.32917437      -6.55199164       6.63242765
C        6.12871436      -5.49337467       6.14580355
C        6.25825763      -4.47217699       5.22558536
C        7.09698470      -6.09824734       7.05847613
C        6.98932284      -7.43873824       7.45685599
C        7.92413318      -8.00001843       8.33401833
C        8.97439662      -7.22384125       8.81760985
Br      10.23648661      -7.98213277      10.00202718
C        9.10085978      -5.89332900       8.43052976
C        8.16608602      -5.33557900       7.55303618
H       -0.75855484      -2.10113300       1.57811594
H        0.65706135      -3.51162358       3.00687766
H        4.12419907      -1.23665900       1.78145404
H        2.70734644       0.15402972       0.36917482
H        2.74555824      -4.03836623       3.88728918
H        7.15495816      -3.91841482       4.98137495
H        6.19429954      -8.07550687       7.07743917
H        7.82711706      -9.04241297       8.62672184
H        9.91806347      -5.28066398       8.80237102
H        8.27878760      -4.29119661       7.26892724
