137
Properties=species:S:1:pos:R:3 pbc="F F F"
C        0.00000000       0.00000000       0.00000000
C        0.88138247       0.88138247      -0.88138247
C        1.12320005       2.20320377      -0.51863279
C        1.92531106       3.00898325      -1.33278777
C        2.48623698       2.50055496      -2.51165684
C        2.23956709       1.17001274      -2.85900347
C        1.43778955       0.36063688      -2.04609579
N        3.26037302       3.37987448      -3.28519230
C        3.88306022       3.14005924      -4.49540860
O        3.90904484       2.08104004      -5.10969001
C        4.53786030       4.35121886      -5.02405253
N        4.53662433       5.52196394      -4.35377985
N        5.19815007       6.36118729      -5.17303764
H        5.30061622       7.32806566      -4.88491179
C        5.63405290       5.79158234      -6.34225734
C        5.21486478       4.47842409      -6.26273110
C        6.34039256       6.51668946      -7.39662615
C        7.18513570       7.59707526      -7.10270611
C        7.85087270       8.28155736      -8.12573988
C        7.67695278       7.88852568      -9.45036927
C        6.84662814       6.81630117      -9.76178922
C        6.18373576       6.13349862      -8.73746681
H        0.69250043       2.61719944       0.38900577
H        2.09994685       4.04011088      -1.03550485
H        2.65365089       0.72841190      -3.76024934
H        1.25547346      -0.67049424      -2.33751232
H        3.37412438       4.33739796      -2.95969132
H        5.36135164       3.69699456      -6.99640173
H        7.35897550       7.91144984      -6.07682024
H        8.50592162       9.11280575      -7.87752450
H        6.70600943       6.50225716     -10.79283188
H        5.53304312       5.30273213      -9.00313620
C        8.36215306       8.59305905     -10.50285838
C        8.93600829       9.18310574     -11.38431800
Br       9.86388366      10.13716134     -12.80956366
C       -0.88138247      -0.88138247      -0.88138247
C       -2.08556558      -0.38617081      -1.37330023
C       -2.89314722      -1.19957279      -2.17436207
C       -2.50421724      -2.50918200      -2.48504953
C       -1.28974857      -2.98973846      -1.98909627
C       -0.47879775      -2.17809341      -1.18763107
N       -3.38118184      -3.26856393      -3.27569403
C       -3.25166816      -4.58231471      -3.68454518
O       -2.30785352      -5.33008131      -3.46184006
C       -4.43116465      -5.03873834      -4.44322869
N       -5.47222546      -4.22500177      -4.71514089
N       -6.33226346      -5.01693593      -5.38317562
H       -7.21955688      -4.62078482      -5.67325197
C       -5.89880341      -6.30581653      -5.56327264
C       -4.65791125      -6.33939134      -4.95871739
C       -6.67786233      -7.35017611      -6.22566973
C       -7.57534595      -7.04899676      -7.26057436
C       -8.31522775      -8.06182509      -7.88111710
C       -8.16094995      -9.38375090      -7.47114688
C       -7.27224340      -9.70320666      -6.44926848
C       -6.53342066      -8.68933546      -5.83194508
H       -2.40691446       0.62498128      -1.13876090
H       -3.83215855      -0.79707964      -2.54632440
H       -0.94262739      -3.99575816      -2.20392657
H        0.46009880      -2.57364724      -0.80894309
H       -4.25196429      -2.83886361      -3.58038576
H       -3.98813554      -7.18541405      -4.88119835
H       -7.69932612      -6.02997368      -7.61794578
H       -9.00161643      -7.80929604      -8.68533940
H       -7.14491774     -10.73241963      -6.12376110
H       -5.84964276      -8.95955877      -5.02970992
C       -8.92243094     -10.42574057      -8.10989897
C       -9.56017127     -11.29840691      -8.64485385
Br     -10.59134344     -12.70943459      -9.50983064
C       -0.88138247       0.88138247       0.88138247
C       -1.40681874       0.37262414       2.06559373
C       -2.21956694       1.18130303       2.86621212
C       -2.51294023       2.49790984       2.48759870
C       -1.97290969       2.99628034       1.29939327
C       -1.15858046       2.18983436       0.49610741
N       -3.35469011       3.23663728       3.33411241
C       -3.82273283       4.52646551       3.16932972
O       -3.55070010       5.29416810       2.25490670
C       -4.75078137       4.91443945       4.24791086
N       -5.04840972       4.09030958       5.27364883
N       -5.93309585       4.79468302       6.00459613
H       -6.32658134       4.35673861       6.83027370
C       -6.22190817       6.03962582       5.50635859
C       -5.45763591       6.13775103       4.36063304
C       -7.17920569       6.96479998       6.10970250
C       -7.39498806       6.99467282       7.49525619
C       -8.31802796       7.88524546       8.05489651
C       -9.03071656       8.75344333       7.23168784
C       -8.82742042       8.74206514       5.85523298
C       -7.90363537       7.85205189       5.29901394
H       -1.19513488      -0.64776509       2.37332430
H       -2.62429267       0.76556839       3.78570153
H       -2.16788571       4.01032425       0.96410217
H       -0.75238402       2.59650586      -0.42639835
H       -3.71272101       2.78537969       4.17311296
H       -5.40693575       6.97293475       3.67487743
H       -6.83645584       6.34581659       8.16497315
H       -8.46720457       7.89745628       9.13159103
H       -9.37864430       9.41694297       5.20551120
H       -7.76529710       7.85395808       4.21965626
C       -9.98045665       9.66974571       7.80786813
C      -10.77586397      10.43714895       8.29041911
Br     -12.06197034      11.67797509       9.07066325
C        0.88138247      -0.88138247       0.88138247
C        0.31046526      -1.91164492       1.62292644
C        1.12068146      -2.71190776       2.43449286
C        2.50123254      -2.48595472       2.51126151
C        3.06040744      -1.45209857       1.75607729
C        2.25249082      -0.64971316       0.94231825
N        3.24113434      -3.31816703       3.36613843
C        4.59359067      -3.27757277       3.64736461
O        5.42137482      -2.51758489       3.16081518
C        4.97252367      -4.27904769       4.66156033
N        4.07933111      -5.13757182       5.19546519
N        4.80537715      -5.84624304       6.08075481
H        4.32925252      -6.54981087       6.63453026
C        6.12933154      -5.49335907       6.14520197
C        6.25896939      -4.47315545       5.22389513
C        7.09789300      -6.09828466       7.05753051
C        6.98934040      -7.43829557       7.45728110
C        7.92444950      -7.99963063       8.33408981
C        8.97590412      -7.22399114       8.81595248
C        9.10325925      -5.89396598       8.42749331
C        8.16818308      -5.33616145       7.55035666
H       -0.75904750      -2.09892005       1.58082154
H        0.65658599      -3.50939821       3.00957839
H        4.12471233      -1.23887772       1.77872208
H        2.70783927       0.15181536       0.36646762
H        2.74541635      -4.03728505       3.88851226
H        7.15596173      -3.92047383       4.97831238
H        6.19335620      -8.07466977       7.07921960
H        7.82672456      -9.04165549       8.62787183
H        9.92139384      -5.28172352       8.79798110
H        8.28160349      -4.29215546       7.26515250
C        9.93798920      -7.80190489       9.71817639
C       10.74373546      -8.28590766      10.47378891
Br      12.04655901      -9.06849920      11.69555046
