162
Properties=species:S:1:pos:R:3 pbc="F F F"
C        1.79143754       1.79143754      -1.79143754
C        2.09995587       3.08773084      -1.38662348
C        2.90734180       3.89633237      -2.19466725
C        3.41115172       3.41678255      -3.41285989
C        3.09410565       2.10517156      -3.79839985
C        2.28582679       1.29500747      -2.99371162
C        4.26199481       4.24763019      -4.26415500
N        4.16797488       5.61355143      -4.35455760
H        3.51022691       6.21623959      -3.87243347
N        5.05135177       6.18332297      -5.19870172
C        5.74527621       5.13647683      -5.69014751
C        5.27510101       3.91573664      -5.14096493
C        6.84143837       5.29334104      -6.66662680
O        7.45389955       4.31883171      -7.08763227
N        7.04987718       6.61901105      -7.01025640
C        8.00594713       7.15585768      -7.89853821
C        8.93884734       6.34966569      -8.56571629
C        9.87780558       6.90108685      -9.44259879
C        9.89176122       8.27058737      -9.66427311
Br      11.15697763       9.01838680     -10.85214127
C        8.97601799       9.09348730      -9.01359307
C        8.02747750       8.55016815      -8.12444018
C        7.06133488       9.49117829      -7.45556341
H        1.72526178       3.47557225      -0.44288635
H        3.15257962       4.89373530      -1.83942515
H        3.46604291       1.69859991      -4.73647580
H        2.05200030       0.28334954      -3.31541913
H        5.65566068       2.92678225      -5.36014371
H        6.40854653       7.25340836      -6.54219371
H        8.96999521       5.27407488      -8.42416313
H       10.58714304       6.24648931      -9.94221860
H        8.99763213      10.16599397      -9.19785572
H        7.15147313       9.42075629      -6.36707654
H        6.03547874       9.25879487      -7.75807115
H        7.25741814      10.53350589      -7.73061903
C       -1.79143754      -1.79143754      -1.79143754
C       -1.65861289      -3.17673124      -1.73896604
C       -2.46592069      -3.98509195      -2.54732878
C       -3.41038432      -3.41597249      -3.41443735
C       -3.53297637      -2.01831966      -3.44638103
C       -2.72621482      -1.20747713      -2.64085393
C       -4.26592605      -4.24820971      -4.25964424
N       -3.89467640      -5.46306905      -4.77833847
H       -3.00254967      -5.93159612      -4.66475418
N       -4.83771993      -6.06520247      -5.53045406
C       -5.86747536      -5.19450207      -5.50992313
C       -5.54461146      -4.04781791      -4.73937321
C       -7.14169019      -5.44879134      -6.21092468
O       -8.05823202      -4.63643147      -6.16570003
N       -7.13617825      -6.66021521      -6.88275117
C       -8.16736421      -7.24382295      -7.64915585
C       -9.41656285      -6.62807980      -7.80958666
C      -10.42513786      -7.22259340      -8.57375996
C      -10.19273469      -8.44351063      -9.19037639
Br     -11.55257432      -9.24758258     -10.22734880
C       -8.96059595      -9.07614558      -9.04635683
C       -7.93759025      -8.48902709      -8.27546850
C       -6.62635901      -9.21984593      -8.16187165
H       -0.93765177      -3.63746944      -1.06859916
H       -2.35773852      -5.06333786      -2.46466368
H       -4.25394544      -1.54070627      -4.10646693
H       -2.83805455      -0.12714625      -2.68556817
H       -6.18874762      -3.19791811      -4.55592090
H       -6.25626682      -7.15984733      -6.78803445
H       -9.64790989      -5.67450944      -7.34581390
H      -11.38214299      -6.71766153      -8.67604642
H       -8.79170786     -10.03309422      -9.53667974
H       -6.39624874      -9.43030202      -7.11275520
H       -5.82169828      -8.62517472      -8.60547177
H       -6.65329204     -10.18098283      -8.68726821
C       -1.79143754       1.79143754       1.79143754
C       -2.50451364       1.22483330       2.84496324
C       -3.31320552       2.03235480       3.65278110
C       -3.41649646       3.41072243       3.41357527
C       -2.68387681       3.96245799       2.35134226
C       -1.87599882       3.15760945       1.54093761
C       -4.25178971       4.26823621       4.25375408
N       -5.40752924       3.85883676       4.86971791
H       -5.83738891       2.94175810       4.81975296
N       -6.02265049       4.81026129       5.60046468
C       -5.23558164       5.89398385       5.44233506
C       -4.13121397       5.59842664       4.60216198
C       -5.52713126       7.19224266       6.08203229
O       -4.78583436       8.15464116       5.91988800
N       -6.68883250       7.15464488       6.83566724
C       -7.27822892       8.18956626       7.59254784
C       -6.69818247       9.46179985       7.69424701
C       -7.29849134      10.47411453       8.44888535
C       -8.49203727      10.22404875       9.11053567
Br      -9.30801947      11.59157403      10.12791220
C       -9.08853942       8.96859366       9.02596528
C       -8.49119667       7.93899026       8.27189890
C       -9.18729348       6.60535303       8.21543008
H       -2.43246105       0.16006421       3.05119512
H       -3.83635476       1.56597076       4.48341456
H       -2.73903227       5.02722088       2.13486547
H       -1.32034528       3.60802158       0.72240211
H       -3.34553660       6.28400530       4.31304474
H       -7.14594371       6.24729486       6.81091003
H       -5.76461463       9.70605445       7.19756415
H       -6.82056212      11.44854437       8.50674446
H      -10.02548555       8.78679802       9.54919825
H       -8.53046967       5.81559017       8.59324612
H       -9.48691636       6.37777705       7.18765135
H      -10.09309574       6.59657882       8.83186851
C        1.79143754      -1.79143754       1.79143754
C        2.56183789      -1.21451627       2.79795601
C        3.37053906      -2.02206996       3.60573240
C        3.41659289      -3.41083239       3.41336887
C        2.62687920      -3.97249850       2.39829936
C        1.81880289      -3.16773480       1.58800819
C        4.25128370      -4.26814619       4.25435011
N        5.44233679      -3.87970287       4.81404425
H        5.90203001      -2.98119604       4.71567391
N        6.04985719      -4.82663706       5.55688221
C        5.21998716      -5.88588154       5.46603185
C        4.09683410      -5.58001260       4.65495589
C        5.48885776      -7.17062751       6.14192094
O        4.70881513      -8.11050993       6.04103846
N        6.67781992      -7.14889296       6.85243175
C        7.25766762      -8.17736330       7.62531210
C        6.63739178      -9.42328827       7.79354927
C        7.22885017     -10.42965671       8.56298433
C        8.45372918     -10.20011487       9.17277765
Br       9.25767408     -11.55986274      10.20996888
C        9.09047388      -8.97094433       9.02168014
C        8.50260570      -7.94739717       8.25208297
C        9.24258559      -6.64278235       8.12270865
H        2.53477083      -0.14124582       2.96770373
H        3.93962472      -1.54615517       4.39996018
H        2.63669814      -5.04550756       2.21891293
H        1.21825563      -3.62609038       0.80642296
H        3.27756699      -6.24627271       4.41874694
H        7.16530559      -6.26020896       6.77863404
H        5.67836595      -9.65069519       7.33917208
H        6.71942239     -11.38341474       8.67301382
H       10.05164676      -8.80510713       9.50472792
H        8.62808356      -5.81685964       8.49436275
H        9.51241200      -6.46249082       7.07744194
H       10.16997109      -6.64533899       8.70623300
C       -0.00445707       0.01189536      -1.78238275
H       -0.66409135       0.67374010      -2.43557963
H        0.65740317      -0.63156657      -2.45157240
C       -0.90989263      -0.90692880      -0.91072765
C        0.90977584       0.90977584      -0.90977584
C       -0.00465871       1.77757030       0.00794375
H       -0.66225468       2.44313916      -0.64384735
H        0.64322798       2.43503045       0.67728295
C       -1.78241447       0.00034974      -0.00472694
H       -2.45427497      -0.65498947       0.64260836
H       -2.43311707       0.67328779      -0.65473579
C       -0.91132561       0.90220522       0.91563759
C       -0.01476271      -0.02253852       1.78660255
H       -0.67934791      -0.69751639       2.42135241
H        0.63392994       0.61504881       2.47327442
C        0.01484550      -1.77751727      -0.01636693
H        0.67870853      -2.42144646      -0.68295456
H       -0.62264859      -2.45592969       0.64226336
C        1.78714474       0.01002794       0.00389507
H        2.44202412       0.67113390       0.66197326
H        2.45385902      -0.65136977      -0.64189061
C        0.91606151      -0.90478549       0.90901405
