149
Properties=species:S:1:pos:R:3 pbc="F F F"
C        0.00000000       0.00000000       0.00000000
C        0.88153352       0.88153352      -0.88153352
C        1.19005184       2.17782681      -0.47671946
C        1.99743778       2.98642835      -1.28476322
C        2.50124769       2.50687853      -2.50295587
C        2.18420163       1.19526754      -2.88849582
C        1.37592276       0.38510344      -2.08380760
C        3.35209079       3.33772616      -3.35425098
N        3.25807086       4.70364740      -3.44465358
H        2.60032288       5.30633557      -2.96252944
N        4.14144775       5.27341894      -4.28879769
C        4.83537219       4.22657280      -4.78024349
C        4.36519698       3.00583262      -4.23106091
C        5.93153435       4.38343702      -5.75672278
O        6.54399553       3.40892768      -6.17772824
N        6.13997315       5.70910703      -6.10035238
C        7.09604310       6.24595365      -6.98863419
C        8.02894332       5.43976167      -7.65581226
C        8.96790155       5.99118283      -8.53269477
C        8.98185719       7.36068334      -8.75436909
C        8.06611397       8.18358328      -8.10368904
C        7.11757347       7.64026413      -7.21453616
C        6.15143086       8.58127427      -6.54565939
H        0.81535776       2.56566822       0.46701767
H        2.24267559       3.98383127      -0.92952113
H        2.55613889       0.78869589      -3.82657178
H        1.14209627      -0.62655448      -2.40551511
H        4.74575666       2.01687822      -4.45023968
H        5.49864250       6.34350434      -5.63228969
H        8.06009119       4.36417085      -7.51425911
H        9.67723901       5.33658528      -9.03231458
H        8.08772811       9.25608994      -8.28795170
H        6.24156911       8.51085227      -5.45717252
H        5.12557471       8.34889085      -6.84816712
H        6.34751412       9.62360187      -6.82071501
C        9.94597907       7.93052245      -9.65954995
C       10.75343115       8.40776270     -10.41763892
Br      12.05901286       9.17941983     -11.64340467
C       -0.88153352      -0.88153352      -0.88153352
C       -0.76970976      -2.26768117      -0.80720718
C       -1.57701774      -3.07605706      -1.61555454
C       -2.50050355      -2.50612645      -2.50445209
C       -2.60221178      -1.10746985      -2.55828336
C       -1.79537291      -0.29664619      -1.75281470
C       -3.35585382      -3.33821772      -3.34999638
N       -2.99495150      -4.56573262      -3.84568772
H       -2.11148410      -5.04533670      -3.71236709
N       -3.93576597      -5.16515106      -4.60274736
C       -4.95289272      -4.27952093      -4.60977484
C       -4.62444518      -3.12647584      -3.85116950
C       -6.22046747      -4.52565839      -5.32556827
O       -7.12561109      -3.69962471      -5.30541565
N       -6.22297312      -5.74671240      -5.97974704
C       -7.25143558      -6.32654967      -6.75264569
C       -8.48907743      -5.69530770      -6.94013212
C       -9.49512495      -6.28634123      -7.71031296
C       -9.27171976      -7.51934462      -8.30584524
C       -8.05114470      -8.16746896      -8.13477263
C       -7.03087403      -7.58393857      -7.35756116
C       -5.73221843      -8.33180793      -7.21433815
H       -0.06526761      -2.72890965      -0.11983106
H       -1.48578429      -4.15442625      -1.51581745
H       -3.30656347      -0.62921956      -3.23562352
H       -1.89077864       0.78441403      -1.81469228
H       -5.25868083      -2.26481122      -3.68938251
H       -5.35190103      -6.25751465      -5.86502085
H       -8.71312996      -4.73184097      -6.49355022
H      -10.44308832      -5.76924185      -7.83380871
H       -7.88920538      -9.13380229      -8.60876207
H       -5.52031950      -8.53021820      -6.15905618
H       -4.91266638      -7.75531083      -7.65465547
H       -5.76561571      -9.30002367      -7.72619162
C      -10.30530466      -8.12856272      -9.10218410
C      -11.17093201      -8.63878288      -9.76911788
Br     -12.57057822      -9.46376572     -10.84749341
C       -0.88153352       0.88153352       0.88153352
C       -2.25675192       0.92209773       0.66574847
C       -3.06504778       1.73052142       1.47306015
C       -2.50581384       2.50486236       2.50040589
C       -1.11884000       2.44367639       2.70544859
C       -0.30794057       1.63789401       1.89899922
C       -3.33873269       3.34867358       3.35666165
N       -4.49639809       3.96169117       2.94828258
H       -4.91498677       3.92896886       2.02523227
N       -5.11080410       4.69353213       3.89932816
C       -4.30770442       4.55992686       4.97455719
C       -3.18988428       3.74033371       4.67187253
C       -4.59882631       5.20027846       6.27258938
O       -3.84832901       5.05220916       7.23011328
N       -5.76668493       5.94449370       6.23825393
C       -6.36722244       6.68433039       7.27907812
C       -5.82118125       6.73400746       8.56932854
C       -6.43132490       7.47360033       9.58685392
C       -7.59789206       8.17652344       9.32249413
C       -8.16086320       8.14324960       8.04927349
C       -7.55758996       7.39825582       7.01652798
C       -8.21177076       7.40591115       5.66068261
H       -2.71033958       0.32419229      -0.12052356
H       -4.13757824       1.72069803       1.29775172
H       -0.64903319       3.03029975       3.49207362
H        0.76424520       1.60956216       2.07573993
H       -2.39323912       3.46799527       5.35164018
H       -6.21592601       5.93177639       5.32673412
H       -4.91209131       6.19987771       8.82655213
H       -5.98110386       7.48907078      10.57596424
H       -9.07562159       8.70042592       7.85572224
H       -8.46807404       6.38680301       5.35471684
H       -7.54407443       7.85796101       4.92059725
H       -9.14070929       7.98695514       5.66416656
C       -8.22637020       8.94156328      10.36811799
C       -8.75272064       9.58228416      11.24382798
Br      -9.60378479      10.61827562      12.65977696
C        0.88153352      -0.88153352       0.88153352
C        0.99435744      -0.60788971       2.24235096
C        1.80282392      -1.41520921       3.05059622
C        2.50510079      -2.50037321       2.50560809
C        2.37162857      -2.76286709       1.13346933
C        1.56564131      -1.95664285       0.32254965
C        3.34786951      -3.35708042       3.33911800
N        4.03047161      -2.92692798       4.44897225
H        4.05733207      -1.98592377       4.82593206
N        4.74735385      -3.88267031       5.07364023
C        4.53025571      -4.98475729       4.32717548
C        3.67441387      -4.69407975       3.23359689
C        5.12586889      -6.29674508       4.64908017
O        4.90188975      -7.27840066       3.95036105
N        5.92351267      -6.24544174       5.78047815
C        6.64381368      -7.29175501       6.39506226
C        6.61198431      -8.60557306       5.90695987
C        7.33350039      -9.62820293       6.53007583
C        8.09993611      -9.34550409       7.65146942
C        8.14816541      -8.04869151       8.15652936
C        7.42223918      -7.01032451       7.53981008
C        7.51910127      -5.62893580       8.13032744
H        0.45278644       0.22399298       2.68521485
H        1.84974581      -1.19289452       4.11338766
H        2.90118279      -3.59529538       0.67492838
H        1.48059379      -2.17862663      -0.73816352
H        3.33645184      -5.39487003       2.48155270
H        5.97123580      -5.31551935       6.18768138
H        6.02609289      -8.87760966       5.03481860
H        7.28508655     -10.63572909       6.12532324
H        8.75453170      -7.84100587       9.03623217
H        6.52714122      -5.26575893       8.41669373
H        7.97207258      -4.94021349       7.41034662
H        8.14131844      -5.61836193       9.03215063
C        8.84645787     -10.39653819       8.29305541
C        9.47166985     -11.27677925       8.83038367
Br      10.48258473     -12.70005460       9.69919803
