141
Properties=species:S:1:pos:R:3 pbc="F F F"
C        0.00000000       0.00000000       0.00000000
C        0.88124041       0.88124041      -0.88124041
C        2.16045009       0.45553204      -1.22640710
C        2.96385509       1.26324734      -2.03705770
C        2.49942708       2.50215019      -2.50362576
C        1.20653661       2.91292870      -2.14764711
C        0.39961686       2.10544024      -1.33878271
C        3.35281135       3.33067215      -3.35092912
N        3.37557595       4.70116291      -3.31606816
H        2.82460139       5.30918927      -2.72010866
N        4.25948219       5.26674513      -4.15937015
C        4.82865155       4.21455090      -4.78245695
C        4.29742783       2.99282247      -4.29943311
C        5.87137527       4.37830739      -5.81282120
O        6.33862827       3.41242150      -6.40445701
N        6.23493241       5.70104974      -5.97422669
C        7.19941025       6.24045469      -6.84051984
C        7.87718153       5.49507742      -7.80303394
C        8.83320637       6.10256368      -8.62239703
C        9.12451127       7.46093472      -8.48111379
Br      10.45101810       8.19756662      -9.62251473
C        8.45392214       8.23318291      -7.52302118
C        8.74790317       9.69306359      -7.31855220
C        7.48635667       7.60686902      -6.71403207
H        2.54340556      -0.49886497      -0.87462850
H        3.96351495       0.91629045      -2.29214162
H        0.79657368       3.85154033      -2.51197810
H       -0.60293540       2.43653198      -1.08019666
H        4.57892645       1.99865386      -4.61923091
H        5.74566005       6.33083186      -5.34232171
H        7.68249142       4.43749843      -7.95065815
H        9.34732141       5.49910343      -9.36705841
H        8.09330514      10.13157328      -6.55751293
H        8.58673313      10.25309481      -8.24492366
H        9.78012251       9.82828883      -6.97945195
H        6.96329486       8.19698170      -5.96368865
C       -0.88124041      -0.88124041      -0.88124041
C       -2.23722507      -0.59560818      -1.00955598
C       -3.04110158      -1.40238475      -1.82067380
C       -2.49967334      -2.50160247      -2.50392722
C       -1.13054834      -2.77198219      -2.36458189
C       -0.32343166      -1.96473592      -1.55567224
C       -3.35520473      -3.33126466      -3.34794324
N       -3.20880423      -4.68629859      -3.49770420
H       -2.51297612      -5.28048546      -3.06043774
N       -4.12527781      -5.26202072      -4.29829894
C       -4.89585912      -4.23026584      -4.69953445
C       -4.45385186      -3.01422136      -4.12161018
C       -6.04210381      -4.41008069      -5.61031936
O       -6.69784270      -3.45307802      -6.00458607
N       -6.26330528      -5.74110938      -5.90579417
C       -7.26528046      -6.29931675      -6.71578757
C       -8.15219549      -5.54346319      -7.47963422
C       -9.13131353      -6.17308781      -8.25376574
C       -9.23594674      -7.56553722      -8.26507582
Br     -10.60783090      -8.33410879      -9.32915976
C       -8.35348106      -8.34826556      -7.50837961
C       -8.43998527      -9.84846844      -7.47106525
C       -7.36668107      -7.69731116      -6.74326552
H       -2.68012240       0.24866501      -0.48771170
H       -4.10047094      -1.16688332      -1.90459276
H       -0.66469152      -3.59554887      -2.89985172
H        0.73736045      -2.18466034      -1.46649335
H       -4.89325694      -2.03662757      -4.26692672
H       -5.62065335      -6.36940223      -5.42875804
H       -8.10743631      -4.45922428      -7.50398741
H       -9.81061184      -5.56056974      -8.84230167
H       -7.64004539     -10.28158740      -6.86075855
H       -8.34070177     -10.26636746      -8.47768237
H       -9.39268620     -10.16270763      -7.03246945
H       -6.67940764      -8.29616391      -6.14839366
C       -0.88124041       0.88124041       0.88124041
C       -0.39394671       2.09708617       1.35135635
C       -1.20502727       2.90395362       2.15517924
C       -2.50402729       2.50135840       2.49981734
C       -2.97868090       1.27418773       2.01424379
C       -2.17009874       0.46614271       1.20759836
C       -3.33660593       3.35891649       3.33889020
N       -4.23271490       2.89359915       4.26649297
H       -4.43579213       1.92598051       4.49212668
N       -4.87471650       3.85613176       4.95474921
C       -4.38309559       5.00206381       4.44050002
C       -3.41668799       4.73353459       3.43946083
C       -4.82341839       6.32934109       4.90974438
O       -4.40344693       7.35827454       4.39378531
N       -5.70265041       6.23657931       5.97097911
C       -6.31521158       7.27632612       6.68884708
C       -6.21789077       8.62086976       6.33653236
C       -6.84846007       9.60064427       7.10906273
C       -7.57695197       9.24387910       8.24572871
Br      -8.38299895      10.64180573       9.24629477
C       -7.69295260       7.89808996       8.61908368
C       -8.44766302       7.46653539       9.84532054
C       -7.06031665       6.92401985       7.82292125
H        0.61011381       2.42894384       1.10033905
H       -0.80494005       3.84894875       2.51805822
H       -3.98931739       0.93832975       2.23244496
H       -2.55812187      -0.47783399       0.83350536
H       -2.86086205       5.46603525       2.86991393
H       -5.87625415       5.27795413       6.26460534
H       -5.66473822       8.94517393       5.46073586
H       -6.75847008      10.64305861       6.81195456
H       -8.46218075       6.37570049       9.94451010
H       -9.48876385       7.80032826       9.79565949
H       -7.97227624       7.87050822      10.74507883
H       -7.14052981       5.87633259       8.10710281
C        0.88124041      -0.88124041       0.88124041
C        0.38373771      -2.08340103       1.37525050
C        1.19477438      -2.89037050       2.17901524
C        2.50400497      -2.50141762       2.49978043
C        2.98880941      -1.28797113       1.99033188
C        2.18024715      -0.47989899       1.18369367
C        3.33632715      -3.35888025       3.33920523
N        4.25186399      -2.89339225       4.24755078
H        4.47158334      -1.92568997       4.45662602
N        4.89005044      -3.85521672       4.94033031
C        4.37527695      -5.00114135       4.44924111
C        3.39864904      -4.73295739       3.45807698
C        4.80364179      -6.32784047       4.93102160
O        4.36211078      -7.35782657       4.43556944
N        5.69900003      -6.23273268       5.97847613
C        6.30709396      -7.27092695       6.70236387
C        6.18606337      -8.61874166       6.37048787
C        6.81377103      -9.59646793       7.14792812
C        7.56316651      -9.23422554       8.26916772
Br       8.36371141     -10.62932325       9.27806479
C        7.70318813      -7.88513634       8.62180176
C        8.48110634      -7.44724116       9.83117146
C        7.07300053      -6.91341364       7.82084358
H       -0.62830141      -2.40449549       1.14297502
H        0.78672110      -3.82446225       2.56076367
H        4.00701495      -0.96342770       2.18964946
H        2.57606594       0.45318875       0.79091605
H        2.82466579      -5.46539530       2.90675014
H        5.89008774      -5.27265728       6.25606860
H        5.61611403      -8.94737146       5.50716252
H        6.70506306     -10.64154683       6.86687336
H        8.51223343      -6.35544364       9.91471428
H        9.51664552      -7.79638214       9.77172394
H        8.01290354      -7.83186675      10.74309300
H        7.17182432      -5.86310484       8.08903604
