86
Properties=species:S:1:pos:R:3 pbc="F F F"
C        1.82487345       1.82487345      -1.82487345
C        1.87425808       1.25468338      -3.23306195
C        2.69844062       2.11111285      -4.19892740
C        4.18027995       2.28660182      -3.83871863
C        4.97853118       1.00224777      -3.66439320
Br       5.16639218       0.04684326      -5.34702684
H        2.80666492       1.84318535      -1.34598381
H        1.38597300       2.82619236      -1.80383451
H        0.85340687       1.18368579      -3.63101089
H        2.25887576       0.22848471      -3.21685306
H        2.24247808       3.10728290      -4.26247850
H        2.61359582       1.67997260      -5.20288847
H        4.25182227       2.86537052      -2.90999669
H        4.64888718       2.90673325      -4.61414438
H        4.53006897       0.31414638      -2.94530759
H        5.99850050       1.22855053      -3.33906123
C       -1.82487345      -1.82487345      -1.82487345
C       -3.12841564      -2.12901159      -1.10457618
C       -4.09632653      -2.96835120      -1.94380314
C       -3.59084502      -4.35760547      -2.35714991
C       -3.15347461      -5.27101299      -1.22068454
Br      -4.65922363      -5.79349356      -0.10754508
H       -1.24047496      -2.72472014      -2.03063899
H       -1.98982111      -1.27225957      -2.75391919
H       -3.63072111      -1.18610693      -0.85127551
H       -2.92988101      -2.62615886      -0.14817365
H       -4.34583035      -2.41087157      -2.85553755
H       -5.03652480      -3.06995422      -1.38997787
H       -2.74599803      -4.23559233      -3.04559912
H       -4.38162935      -4.84941474      -2.93872072
H       -2.40666254      -4.81456845      -0.56829196
H       -2.74350448      -6.20447435      -1.61813343
C       -1.82487345       1.82487345       1.82487345
C       -2.74235433       2.66665776       0.95299133
C       -3.70058253       3.54506282       1.76283551
C       -3.04096228       4.58208587       2.68255225
C       -2.08253086       5.55393798       2.00870331
Br      -3.01784779       6.74888125       0.79353323
H       -1.14110589       2.43270620       2.42202200
H       -2.38586740       1.15143636       2.47869611
H       -3.34559875       2.00493781       0.31756699
H       -2.15466681       3.28484597       0.26470075
H       -4.33564307       2.89675731       2.37983909
H       -4.37883346       4.05112908       1.06649435
H       -2.49645038       4.05531900       3.47542010
H       -3.83656579       5.14415732       3.18904170
H       -1.29801092       5.05411896       1.43739305
H       -1.61062083       6.20200813       2.75348330
C        1.82487345      -1.82487345       1.82487345
C        1.71756482      -1.37239576       3.27204283
C        2.53351199      -2.24046976       4.23449912
C        4.04820048      -2.27033085       3.98706907
C        4.74725942      -0.91813889       3.97977384
Br       4.72411950      -0.09522600       5.74091677
H        2.83877159      -1.72723686       1.42982564
H        1.47422536      -2.85179391       1.68998060
H        0.66669877      -1.41393119       3.58747359
H        2.01507564      -0.32182971       3.36730818
H        2.15895428      -3.27066879       4.18261640
H        2.33567331      -1.90267624       5.25810734
H        4.23936863      -2.76211494       3.02570591
H        4.50580869      -2.91514795       4.74880816
H        4.29963088      -0.20895276       3.28093929
H        5.80463943      -1.03704302       3.72442982
C       -0.00445707       0.01189536      -1.78238275
H       -0.66409135       0.67374010      -2.43557963
H        0.65740317      -0.63156657      -2.45157240
C       -0.90989263      -0.90692880      -0.91072765
C        0.90977584       0.90977584      -0.90977584
C       -0.00465871       1.77757030       0.00794375
H       -0.66225468       2.44313916      -0.64384735
H        0.64322798       2.43503045       0.67728295
C       -1.78241447       0.00034974      -0.00472694
H       -2.45427497      -0.65498947       0.64260836
H       -2.43311707       0.67328779      -0.65473579
C       -0.91132561       0.90220522       0.91563759
C       -0.01476271      -0.02253852       1.78660255
H       -0.67934791      -0.69751639       2.42135241
H        0.63392994       0.61504881       2.47327442
C        0.01484550      -1.77751727      -0.01636693
H        0.67870853      -2.42144646      -0.68295456
H       -0.62264859      -2.45592969       0.64226336
C        1.78714474       0.01002794       0.00389507
H        2.44202412       0.67113390       0.66197326
H        2.45385902      -0.65136977      -0.64189061
C        0.91606151      -0.90478549       0.90901405
