149
Properties=species:S:1:pos:R:3 pbc="F F F"
C        0.00000000       0.00000000       0.00000000
C        0.88152072       0.88152072      -0.88152072
C        0.51769027       1.12083348      -2.20454046
C        1.32370181       1.93222124      -3.00692144
C        2.48939588       2.51293654      -2.48597780
C        2.85386011       2.25334630      -1.15831671
C        2.04678011       1.43918607      -0.35645519
C        3.30509722       3.38768049      -3.37870119
O        3.18620454       3.25203547      -4.59616082
C        4.25315503       4.38649334      -2.72491877
N        4.47429864       5.52271750      -3.60610521
N        3.54035446       6.53424834      -3.54333233
C        3.66720176       7.53100674      -4.36686423
C        4.73232327       7.62394830      -5.39013616
C        5.63436329       6.64184403      -5.41760536
C        5.55468616       5.50877542      -4.47505571
O        6.42933744       4.64648876      -4.50210139
C        2.67637220       8.64483690      -4.30553542
C        1.36409437       8.35357451      -3.90528710
C        0.41094543       9.37085036      -3.80864102
C        0.77081805      10.68354060      -4.10576263
C        2.07447900      10.98848006      -4.49503894
C        3.02968868       9.97122047      -4.59075998
H       -0.38599713       0.68378782      -2.62198711
H        1.03606752       2.11536687      -4.04129283
H        3.76519812       2.65874310      -0.72667672
H        2.33674136       1.24378416       0.67321068
H        5.19933626       3.88088681      -2.50629404
H        3.82538266       4.77344609      -1.79413110
H        4.75835559       8.43510325      -6.10293365
H        6.44476734       6.61411834      -6.13389956
H        1.07642144       7.33089349      -3.66832325
H       -0.60223887       9.12803845      -3.49740422
H        2.35931358      12.01447961      -4.71431821
H        4.04670422      10.24079718      -4.86062736
C       -0.20763399      11.73474497      -3.99992803
C       -1.02708758      12.61512864      -3.91129155
Br      -2.35207472      14.03863456      -3.76797386
C       -0.88152072      -0.88152072      -0.88152072
C       -0.32152978      -1.56041030      -1.96112413
C       -1.12986118      -2.37040898      -2.76257434
C       -2.49683398      -2.51040223      -2.48107400
C       -3.05266287      -1.81112328      -1.40173696
C       -2.24243244      -0.99891672      -0.60107221
C       -3.31253557      -3.40312643      -3.35581690
O       -2.89762291      -3.64854830      -4.48822962
C       -4.62414398      -3.94313134      -2.79729182
N       -4.96160974      -5.20628362      -3.43522799
N       -4.39093673      -6.33638050      -2.89061789
C       -4.61327745      -7.47348314      -3.47831214
C       -5.41110744      -7.61905269      -4.71624761
C       -5.96805492      -6.51334509      -5.21241267
C       -5.77693730      -5.20485947      -4.55672051
O       -6.34247306      -4.21686574      -5.01858879
C       -4.01826599      -8.71189812      -2.89658042
C       -2.79750968      -8.61217808      -2.21326822
C       -2.21792266      -9.74219340      -1.63032074
C       -2.86237928     -10.97380051      -1.72394150
C       -4.08137067     -11.08504828      -2.39157906
C       -4.66308788      -9.95433598      -2.97424527
H        0.73742100      -1.46802020      -2.18917859
H       -0.68795012      -2.89818333      -3.60659378
H       -4.11285141      -1.86826223      -1.16950430
H       -2.68200572      -0.46053031       0.23522118
H       -5.41141786      -3.20270420      -2.97239505
H       -4.53764805      -4.13298957      -1.72232223
H       -5.51068785      -8.57335926      -5.21234539
H       -6.56067102      -6.51449127      -6.11762296
H       -2.28980544      -7.65269967      -2.13313307
H       -1.27078364      -9.64782881      -1.10459134
H       -4.59122283     -12.04321544      -2.45367313
H       -5.63043012     -10.06109164      -3.45660700
C       -2.27081788     -12.13839470      -1.11782643
C       -1.77538521     -13.11374234      -0.61020506
Br      -0.97431248     -14.69079698       0.21057576
C       -0.88152072       0.88152072       0.88152072
C       -1.48809591       2.01321804       0.34175026
C       -2.29838501       2.81475567       1.14970383
C       -2.51104879       2.48170877       2.49555265
C       -1.88392620       1.34954613       3.03205079
C       -1.07131528       0.54877507       2.22233102
C       -3.40110722       3.35977214       3.31059955
O       -3.57925367       4.51866836       2.93647879
C       -4.02237228       2.77041924       4.57177562
N       -5.27094119       3.44904142       4.88313874
N       -6.39668568       2.98018615       4.24106329
C       -7.51645750       3.60795588       4.44065936
C       -7.64449248       4.81598113       5.28593412
C       -6.54454597       5.23815632       5.91111038
C       -5.25801051       4.53354744       5.74695934
O       -4.27739967       4.92637135       6.37415658
C       -8.75081274       3.10791593       3.76801586
C       -8.62602655       2.47354513       2.52338431
C       -9.75292802       1.96680220       1.87070659
C      -11.00691810       2.08764214       2.46556104
C      -11.14380015       2.70695728       3.70724057
C      -10.01630999       3.21329752       4.36206162
H       -1.33895364       2.28190070      -0.70107654
H       -2.76944707       3.69954463       0.72373552
H       -1.99811792       1.07506924       4.07743077
H       -0.58922753      -0.32867580       2.64676311
H       -3.31097433       2.87859813       5.39694466
H       -4.25387763       1.70965024       4.42943197
H       -8.58025299       5.34941919       5.36672032
H       -6.53348209       6.11640882       6.54289434
H       -7.64916647       2.37245946       2.05401225
H       -9.63895905       1.47827865       0.90596610
H      -12.12021695       2.78988615       4.17800829
H      -10.14539719       3.65822633       5.34450524
C      -12.16878730       1.55982787       1.79842384
C      -13.14185276       1.11778341       1.23969643
Br     -14.71521731       0.40303492       0.33628147
C        0.88152072      -0.88152072       0.88152072
C        1.38365531      -2.07982840       0.37958050
C        2.19431952      -2.88153933       1.18698565
C        2.51181818      -2.48274865       2.49374339
C        1.98903428      -1.28286470       2.99362413
C        1.17589875      -0.48187527       2.18464734
C        3.39781739      -3.36534809       3.30831342
O        3.48208436      -4.55354965       2.99876682
C        4.13230354      -2.74232321       4.48994039
N        5.35530181      -3.47922743       4.76859211
N        6.46391209      -3.12229582       4.03172721
C        7.55453211      -3.80702988       4.20351074
C        7.66359775      -4.96798831       5.11482167
C        6.58240473      -5.28107306       5.83033489
C        5.33251620      -4.50705154       5.69894954
O        4.37208783      -4.79837644       6.40746331
C        8.77125742      -3.42777979       3.42770732
C        8.60565563      -2.86239278       2.15490758
C        9.71701118      -2.46842683       1.40499879
C       10.99685320      -2.63305894       1.93020915
C       11.17521779      -3.18439494       3.19838527
C       10.06343640      -3.57779395       3.95043878
H        1.15258635      -2.40040782      -0.63321637
H        2.58348712      -3.81844101       0.79079909
H        2.18579588      -0.95413452       4.01068753
H        0.77521057       0.44832663       2.58043090
H        3.46970475      -2.75538713       5.36142523
H        4.41735492      -1.70887814       4.26672679
H        8.56899072      -5.55414457       5.17325721
H        6.55904743      -6.11744150       6.51629632
H        7.60869213      -2.72757749       1.73936856
H        9.57128015      -2.03226364       0.41966000
H       12.17291545      -3.30101114       3.61418480
H       10.22796483      -3.97043236       4.94973157
C       12.14338312      -2.22119480       1.16246109
C       13.10360193      -1.87625859       0.51947210
Br      14.65619453      -1.31852590      -0.52018673
