141
Properties=species:S:1:pos:R:3 pbc="F F F"
C        0.00000000       0.00000000       0.00000000
C        0.88152072       0.88152072      -0.88152072
C        0.51769027       1.12083348      -2.20454046
C        1.32370181       1.93222124      -3.00692144
C        2.48939588       2.51293654      -2.48597780
C        2.85386011       2.25334630      -1.15831671
C        2.04678011       1.43918607      -0.35645519
C        3.30509722       3.38768049      -3.37870119
O        3.18620454       3.25203547      -4.59616082
C        4.25315503       4.38649334      -2.72491877
N        4.47429864       5.52271750      -3.60610521
N        3.54035446       6.53424834      -3.54333233
C        3.66720176       7.53100674      -4.36686423
C        4.73232327       7.62394830      -5.39013616
C        5.63436329       6.64184403      -5.41760536
C        5.55468616       5.50877542      -4.47505571
O        6.42933744       4.64648876      -4.50210139
C        2.67637220       8.64483690      -4.30553542
C        1.36409437       8.35357451      -3.90528710
C        0.41094543       9.37085036      -3.80864102
C        0.77081805      10.68354060      -4.10576263
Br      -0.51332363      12.06316401      -3.96686301
C        2.07447900      10.98848006      -4.49503894
C        3.02968868       9.97122047      -4.59075998
H       -0.38599713       0.68378782      -2.62198711
H        1.03606752       2.11536687      -4.04129283
H        3.76519812       2.65874310      -0.72667672
H        2.33674136       1.24378416       0.67321068
H        5.19933626       3.88088681      -2.50629404
H        3.82538266       4.77344609      -1.79413110
H        4.75835559       8.43510325      -6.10293365
H        6.44476734       6.61411834      -6.13389956
H        1.07642144       7.33089349      -3.66832325
H       -0.60223887       9.12803845      -3.49740422
H        2.35931358      12.01447961      -4.71431821
H        4.04670422      10.24079718      -4.86062736
C       -0.88152072      -0.88152072      -0.88152072
C       -1.87439139      -0.30129537      -1.66737745
C       -2.67576504      -1.11018260      -2.47689686
C       -2.48027311      -2.49877564      -2.50926146
C       -1.48869039      -3.07344196      -1.70339076
C       -0.68811015      -2.26246227      -0.89184895
C       -3.34981332      -3.31597131      -3.40569427
O       -4.43302052      -2.84706784      -3.75431247
C       -2.84905943      -4.69465111      -3.82085660
N       -3.42627571      -5.07632181      -5.10052383
N       -2.77242925      -4.62061447      -6.22489140
C       -3.29981777      -4.88224803      -7.38300693
C       -4.57765711      -5.60710924      -7.56164139
C       -5.18076655      -6.05393253      -6.45911360
C       -4.59881780      -5.81599347      -5.12370602
O       -5.16081850      -6.28164032      -4.13546878
C       -2.60039496      -4.41211993      -8.61422964
C       -1.84278194      -3.23376133      -8.54641271
C       -1.15016143      -2.77163352      -9.66864185
C       -1.20854516      -3.49169815     -10.85987797
Br      -0.26527427      -2.87460871     -12.37682042
C       -1.94969216      -4.67009588     -10.93820996
C       -2.64222344      -5.13431472      -9.81513097
H       -2.03474342       0.77394330      -1.65897768
H       -3.45188632      -0.65226690      -3.08857401
H       -1.32652522      -4.14776349      -1.67632923
H        0.07979868      -2.71682705      -0.27028647
H       -3.12488530      -5.41643288      -3.04519893
H       -1.76072763      -4.69052774      -3.94170448
H       -5.01716333      -5.73986580      -8.53936337
H       -6.12254393      -6.58592994      -6.48431137
H       -1.78974288      -2.66764189      -7.61825342
H       -0.56785568      -1.85593972      -9.59940839
H       -1.98500130      -5.23942134     -11.86368875
H       -3.18194371      -6.07375469      -9.89243037
C       -0.88152072       0.88152072       0.88152072
C       -2.26661151       0.83372508       0.74272762
C       -3.07059625       1.63769468       1.55455357
C       -2.49229786       2.48370320       2.51230915
C       -1.09741932       2.53502596       2.63307783
C       -0.29342112       1.73074891       1.81825134
C       -3.39605575       3.30740733       3.36801582
O       -4.53395023       3.53978934       2.96066126
C       -2.84563006       3.82814563       4.69079146
N       -3.92787036       4.03439911       5.64085188
N       -4.32248483       2.93029365       6.36515663
C       -5.33325079       3.06100460       7.17081734
C       -6.10581632       4.31358374       7.32700768
C       -5.69205405       5.37238699       6.62937164
C       -4.52386220       5.28302196       5.73163313
O       -4.14647720       6.29142149       5.14002890
C       -5.76746308       1.88271910       7.97656235
C       -5.58166302       0.59953047       7.44176249
C       -5.94972429      -0.53268842       8.17340094
C       -6.49839872      -0.38355085       9.44527341
Br      -6.98843606      -1.91306306      10.44133040
C       -6.67916250       0.88585928       9.99297623
C       -6.30981203       2.01977882       9.26207827
H       -2.73117844       0.17872543       0.00987392
H       -4.15311606       1.59813074       1.44148044
H       -0.60965856       3.20000833       3.34095106
H        0.78832308       1.77623434       1.91940359
H       -2.31465090       4.76732844       4.50453778
H       -2.15522557       3.10321065       5.13452363
H       -6.98433538       4.35819680       7.95386032
H       -6.19547654       6.32929525       6.66801346
H       -5.15052052       0.47501896       6.45009870
H       -5.79951512      -1.52033052       7.74401919
H       -7.09505854       1.00241175      10.99064111
H       -6.42716516       2.99480721       9.72615639
C        0.88152072      -0.88152072       0.88152072
C        1.83721722      -1.70903658       0.29681041
C        2.64583364      -2.51043938       1.10657147
C        2.50692335      -2.47939595       2.50199092
C        1.53221372      -1.65461648       3.07869292
C        0.72191768      -0.85396263       2.26654105
C        3.40857441      -3.33984382       3.32306066
O        3.93156673      -4.31626516       2.78656894
C        3.61225042      -2.96558890       4.78672782
N        4.90369293      -3.44486065       5.25456777
N        5.98420222      -2.62562764       5.00810526
C        7.16247437      -3.05433237       5.34826599
C        7.41397234      -4.38313321       5.94930218
C        6.34992421      -5.14890057       6.19498791
C        4.98761692      -4.68799945       5.86290092
O        4.02949729      -5.40328050       6.14514980
C        8.34457316      -2.17703354       5.10513783
C        8.31262756      -1.29599959       4.01432884
C        9.38709020      -0.43795229       3.76539431
C       10.49347867      -0.45474503       4.61189759
Br      11.94421008       0.71114404       4.28363735
C       10.53383924      -1.31841123       5.70574753
C        9.45830479      -2.17670981       5.95665453
H        1.96229723      -1.74016428      -0.78268371
H        3.39077023      -3.15706357       0.64489343
H        1.37200861      -1.62535840       4.15325092
H       -0.03142199      -0.21607327       2.72266355
H        2.80267972      -3.40627765       5.37755974
H        3.60236662      -1.87787726       4.91271597
H        8.41739398      -4.72890507       6.15009344
H        6.43042504      -6.13928533       6.62307488
H        7.45021828      -1.27485860       3.35056130
H        9.34670986       0.23858826       2.91508219
H       11.39115002      -1.32271635       6.37424502
H        9.49905202      -2.81318185       6.83589489
