137
Properties=species:S:1:pos:R:3 pbc="F F F"
C        0.00000000       0.00000000       0.00000000
C        3.78893772       4.47351631      -2.88859731
O        3.26859202       3.23924523      -3.36758921
C        2.49639171       2.50469656      -2.50486728
C        2.24459695       2.85382773      -1.17160021
C        1.43815521       2.04555184      -0.36281696
C        0.88137692       0.88137692      -0.88137692
C        1.11987646       0.51840896      -2.20263067
C        1.92503044       1.32614511      -3.02121956
C        2.09696242       0.89118293      -4.41062025
C        3.13573269       0.14369079      -4.81498660
C        3.10864181      -0.41735559      -6.19328613
O        2.07890478      -0.40217979      -6.85739566
N        4.31965678      -0.92879598      -6.58189997
C        4.59963322      -1.61451037      -7.76702447
C        3.62327877      -2.07102687      -8.64689590
C        4.01031031      -2.74777565      -9.80466773
C        5.35995167      -2.94363133     -10.05087789
C        6.26873451      -2.47197321      -9.11892621
N        5.91735890      -1.82525534      -7.97833739
H        4.48886268       4.31089261      -2.06221145
H        2.98452212       5.15735055      -2.59704638
H        4.34405049       4.94381466      -3.70580278
H        2.65747591       3.75378018      -0.72741837
H        1.24994933       2.33636186       0.66758810
H        0.67460284      -0.38829979      -2.60701707
H        1.28206357       1.14643243      -5.08455083
H        3.94308662      -0.13235329      -4.14910151
H        5.14509942      -0.75875628      -6.02518345
H        2.56529079      -1.93264413      -8.45701029
H        3.25245112      -3.10825129     -10.49435024
H        7.33844506      -2.59765894      -9.25997396
C        5.79958247      -3.61985383     -11.24379360
C        6.16777326      -4.18619017     -12.24286051
Br       6.76310663      -5.10190814     -13.85826720
C       -2.90457753      -4.49313949      -3.75333433
O       -3.35073631      -3.21855042      -3.30613974
C       -2.49986881      -2.49855860      -2.50752815
C       -1.25856277      -2.96061494      -2.05084717
C       -0.45100917      -2.15384902      -1.24166583
C       -0.88137692      -0.88137692      -0.88137692
C       -2.11050451      -0.40528101      -1.32513056
C       -2.92464846      -1.20755892      -2.14018772
C       -4.18764700      -0.61737898      -2.59373961
C       -5.34896546      -0.79939957      -1.94604505
C       -6.52658620       0.00807387      -2.36606001
O       -6.39383613       0.97141592      -3.11170044
N       -7.70150118      -0.44603812      -1.82522146
C       -8.96175917       0.14741479      -1.93780294
C       -9.17389629       1.42388743      -2.44913894
C      -10.47502086       1.92460367      -2.51678518
C      -11.52459136       1.13395882      -2.07656569
C      -11.22903979      -0.11917807      -1.56746966
N       -9.97163399      -0.62244846      -1.47635850
H       -2.77026368      -5.18035787      -2.91134519
H       -1.98656316      -4.40769689      -4.34465900
H       -3.67950550      -4.91152244      -4.40263999
H       -0.88369548      -3.94568342      -2.30929555
H        0.51141093      -2.52814237      -0.90199165
H       -2.43913013       0.59445952      -1.04864951
H       -4.11130113       0.04868674      -3.45043245
H       -5.43353878      -1.44489416      -1.08140191
H       -7.73018283      -1.33492785      -1.34641591
H       -8.35839857       2.05373613      -2.78499451
H      -10.64661397       2.92127635      -2.91321245
H      -12.01158987      -0.78123647      -1.20793374
C      -12.88264838       1.60739312      -2.14826697
C      -14.02002114       2.00389435      -2.20831679
Br     -15.85905670       2.64500330      -2.30541228
C       -4.14126823       2.79999460       4.20978852
O       -3.27219980       3.36668194       3.23654473
C       -2.50667522       2.50228123       2.49699911
C       -2.47396245       1.11392026       2.68214218
C       -1.66510408       0.30574473       1.87567520
C       -0.88137692       0.88137692       0.88137692
C       -0.90069220       2.25775028       0.68247360
C       -1.71238918       3.07469376       1.48531216
C       -1.70186617       4.50997754       1.18692189
C       -0.89700051       5.37797434       1.81943523
C       -0.81292724       6.77060358       1.30104153
O       -1.27143559       7.06045490       0.20223015
N       -0.18090285       7.62269786       2.16916005
C        0.14917414       8.96123625       1.94008521
C        0.07114883       9.57595632       0.69434031
C        0.42625672      10.92035851       0.57310059
C        0.84354249      11.61090870       1.69983202
C        0.90807085      10.92372157       2.90003679
N        0.58359929       9.61317331       3.04086694
H       -3.57300580       2.29252761       4.99643333
H       -4.86804098       2.12338632       3.74749176
H       -4.69936764       3.61644899       4.67785129
H       -3.07046098       0.62356247       3.44465100
H       -1.65769188      -0.77012562       2.03115683
H       -0.29314734       2.70294403      -0.10277124
H       -2.33497007       4.81976996       0.35830680
H       -0.24896399       5.07808524       2.63278562
H        0.02617712       7.32563615       3.11206756
H       -0.24296015       9.04102105      -0.19432425
H        0.36925691      11.40512342      -0.39731644
H        1.22831974      11.41431096       3.81476885
C        1.19947486      13.00388957       1.61910752
C        1.49756821      14.17051105       1.55150076
Br       1.97955996      16.05683931       1.44218634
C        4.45087545      -2.87263592       3.82753997
O        3.24170737      -3.36823749       3.26548161
C        2.50490091      -2.50466210       2.49639254
C        2.82696812      -1.15755741       2.28549935
C        2.01863551      -0.34881976       1.47906874
C        0.88137692      -0.88137692       0.88137692
C        0.54550489      -2.21648057       1.07893062
C        1.35357127      -3.03499923       1.88382460
C        0.94903492      -4.43830039       2.01143029
C        0.18694031      -4.88609124       3.02137854
C       -0.33908308      -6.27642159       2.94723384
O       -0.28270124      -6.91434139       1.90248050
N       -0.86980640      -6.70703421       4.13553296
C       -1.53259383      -7.91489170       4.36984945
C       -1.94358179      -8.78113037       3.36159921
C       -2.60066430      -9.96407906       3.70378761
C       -2.82284809     -10.24819086       5.04185546
C       -2.39638520      -9.32786943       5.98420328
N       -1.76975067      -8.16369772       5.67649391
H        4.25107429      -2.06794527       4.54294717
H        5.14648831      -2.54491459       3.04751615
H        4.92769648      -3.69172924       4.37424220
H        3.70546608      -0.70214804       2.73106034
H        2.28836283       0.69262751       1.32298777
H       -0.33994739      -2.63148106       0.60178645
H        1.24041270      -5.08555516       1.18707897
H       -0.12483917      -4.24719196       3.83748205
H       -0.73350779      -6.16693511       4.97809927
H       -1.78447431      -8.56189677       2.31223449
H       -2.92563062     -10.64332317       2.92085752
H       -2.54429175      -9.49827774       7.04677408
C       -3.47980435     -11.46754872       5.43577786
C       -4.03000522     -12.48876094       5.76568788
Br      -4.91963350     -14.13997471       6.29912447
