161
Properties=species:S:1:pos:R:3 pbc="F F F"
C        0.00000000       0.00000000       0.00000000
C        0.88177899       0.88177899      -0.88177899
C        0.60786960       2.24314314      -0.99103621
C        1.41911588       3.05173701      -1.79070094
C        2.50722741       2.50442709      -2.48645729
C        2.77113628       1.13135254      -2.36120936
C        1.95866858       0.32112358      -1.56446721
C        3.40849321       3.38895798      -3.30636513
N        3.51509950       2.94898664      -4.67384564
C        4.46984839       3.48426392      -5.50868012
O        5.28704891       4.32045489      -5.13290669
C        4.43153577       2.96546226      -6.87162972
N        3.43222154       2.14953436      -7.32882694
N        3.71136184       1.81769514      -8.57887385
N        4.83670684       2.47391719      -8.96959662
C        5.28063852       2.38562135     -10.32029320
C        6.15202622       3.32760678     -10.87426064
C        6.57727075       3.19759319     -12.19957199
C        6.13638773       2.12947987     -12.98431757
Br       6.77772655       2.03009181     -14.76889774
C        5.24797645       1.18145309     -12.45812057
C        4.74944862       0.01404892     -13.26407271
C        4.81351329       1.33194567     -11.12732114
C        5.37434891       3.14025528      -7.87552825
C        6.70917985       3.78377422      -7.80986026
H       -0.22762559       2.68549641      -0.45509095
H        1.19920622       4.11531840      -1.85931446
H        3.61908574       0.68705602      -2.87967341
H        2.17850304      -0.73970467      -1.47835918
H        4.40658522       3.41294575      -2.85347106
H        3.03815010       4.42041162      -3.32544015
H        2.80380288       2.34794877      -5.07647141
H        6.48826155       4.20148014     -10.32758491
H        7.25129191       3.94411680     -12.61492480
H        4.09810809      -0.63565713     -12.66977081
H        5.58863409      -0.59938983     -13.60798512
H        4.16943110       0.36264863     -14.12435331
H        4.12299624       0.59514176     -10.71579131
H        7.10706648       3.76422213      -6.79044355
H        6.65339910       4.82931822      -8.12594413
H        7.44409959       3.25477666      -8.42378506
C       -0.88177899      -0.88177899      -0.88177899
C       -2.02830093      -0.34807898      -1.46566904
C       -2.83064824      -1.15177182      -2.27913377
C       -2.49269174      -2.49303685      -2.51238319
C       -1.33132064      -3.01294088      -1.91943666
C       -0.52994450      -2.21117815      -1.10313672
C       -3.33282498      -3.34061630      -3.43037504
N       -3.80043761      -4.54468755      -2.79280662
C       -4.37781164      -5.55034049      -3.53464030
O       -4.49097767      -5.49324777      -4.75618505
C       -4.83306929      -6.68987586      -2.74568261
N       -4.84362344      -6.68995687      -1.37700252
N       -5.26242637      -7.87678560      -0.96871887
N       -5.60437861      -8.62211054      -2.05373150
C       -6.20667869      -9.90112177      -1.87875261
C       -6.93843270     -10.51829431      -2.89716664
C       -7.50125751     -11.78133004      -2.69184837
C       -7.34148739     -12.43883007      -1.46986771
Br      -8.13178092     -14.15598600      -1.28894918
C       -6.62765481     -11.83361014      -0.42628515
C       -6.42738468     -12.50455615       0.90437058
C       -6.07946493     -10.55428903      -0.63902614
C       -5.25380833      -7.93009086      -3.20623325
C       -5.24289570      -8.47357273      -4.58634589
H       -2.30285041       0.69032720      -1.30043857
H       -3.71825379      -0.71906938      -2.73651592
H       -1.04073624      -4.04676148      -2.09831746
H        0.36616006      -2.63019912      -0.65311848
H       -2.74902670      -3.60376375      -4.32021159
H       -4.21679123      -2.79192908      -3.77528156
H       -3.83965255      -4.60759480      -1.78097571
H       -7.13459011     -10.03502475      -3.84771174
H       -8.07238390     -12.24325810      -3.49469152
H       -5.81155550     -11.89418006       1.57351378
H       -5.91158096     -13.46180345       0.77615503
H       -7.38972863     -12.66668793       1.39998353
H       -5.52314434     -10.08201527       0.17123030
H       -4.48420423      -7.97768028      -5.19984766
H       -6.21223061      -8.32563874      -5.07079211
H       -4.98534996      -9.53673633      -4.60057502
C       -0.88177899       0.88177899       0.88177899
C       -2.22465932       0.55743234       1.05995729
C       -3.02962606       1.35878117       1.87314660
C       -2.49774718       2.48899978       2.51136483
C       -1.14131067       2.79830929       2.32407821
C       -0.33612862       1.99961322       1.50851752
C       -3.35662840       3.32027465       3.42691327
N       -3.38629353       4.70838988       3.04324838
C       -3.91909590       5.65638542       3.88731111
O       -4.35551992       5.38273174       5.00215883
C       -3.91086076       7.01126860       3.34649840
N       -3.56452579       7.29334450       2.05271254
N       -3.61133083       8.60570098       1.89089902
N       -4.06440755       9.17671815       3.03909495
C       -4.32630601      10.57623388       3.08401318
C       -5.15605806      11.14136752       4.05646808
C       -5.37606473      12.52172123       4.07664997
C       -4.77304469      13.34995004       3.12719044
Br      -5.12141582      15.21310068       3.24219960
C       -3.95121523      12.80589658       2.13043829
C       -3.27894205      13.65844517       1.09018304
C       -3.75027476      11.41246912       2.11003621
C       -4.17476522       8.19724240       4.01812482
C       -4.41283461       8.42571287       5.46426684
H       -2.65261314      -0.31735498       0.57770362
H       -4.07462369       1.08816153       2.01105387
H       -0.70271324       3.66181000       2.82129194
H        0.71218138       2.25360653       1.37573240
H       -2.98362678       3.23509167       4.45428357
H       -4.39257761       2.96219872       3.42922554
H       -3.14707868       4.98440891       2.09673548
H       -5.68721240      10.54241681       4.78769739
H       -6.02978865      12.94251752       4.83802734
H       -2.64812219      13.05863986       0.42545972
H       -2.63023486      14.40139278       1.56560174
H       -4.02503536      14.16307854       0.46831914
H       -3.11070449      10.98727598       1.33594884
H       -3.95771733       7.63506172       6.06895312
H       -5.48390566       8.43958843       5.68516736
H       -3.95656945       9.35909936       5.80699249
C        0.88177899      -0.88177899       0.88177899
C        0.31721020      -1.95014650       1.57469225
C        1.12471709      -2.76215035       2.37468639
C        2.49999741      -2.51031467       2.48779971
C        3.05272211      -1.43203982       1.77893625
C        2.24569667      -0.61733942       0.98122328
C        3.37448669      -3.41857897       3.31075067
N        4.11187337      -2.70462685       4.32143158
C        5.13287177      -3.32085292       5.00906775
O        5.48664914      -4.47427108       4.77949028
C        5.76158001      -2.48278450       6.02426325
N        5.27274981      -1.25549988       6.38233315
N        6.08851020      -0.73482186       7.28459878
N        7.05723017      -1.64237176       7.58061871
C        7.99205169      -1.37324290       8.62125848
C        8.72258348      -2.39200299       9.23930718
C        9.64231128      -2.08563137      10.24649328
C        9.84026343      -0.76236539      10.64755636
Br      11.11917496      -0.44309978      12.01444136
C        9.10697715       0.27570906      10.05628201
C        9.28873042       1.71453073      10.45337055
C        8.17151197      -0.04668488       9.05458325
C        6.93351198      -2.73064271       6.72597775
C        7.91538419      -3.82965870       6.55777143
H       -0.74536333      -2.16350844       1.49481667
H        0.67198174      -3.59903602       2.90282132
H        4.12010394      -1.22642667       1.83928457
H        2.69090703       0.21245812       0.43870864
H        4.07594516      -3.94450849       2.65254838
H        2.77840322      -4.18254609       3.82305255
H        3.79901986      -1.79248044       4.63672277
H        8.57564482      -3.43969215       9.00198962
H       10.19753887      -2.89297609      10.71981855
H        8.65886636       2.37970010       9.85305552
H       10.32659688       2.02622066      10.29685315
H        9.01342005       1.85971478      11.50272778
H        7.60057530       0.75943317       8.59278718
H        7.88052183      -4.23821582       5.54299452
H        7.70757536      -4.64740086       7.25368522
H        8.94225244      -3.48021943       6.70018943
