169
Properties=species:S:1:pos:R:3 pbc="F F F"
C        0.00000000       0.00000000       0.00000000
C        0.88177899       0.88177899      -0.88177899
C        0.60786960       2.24314314      -0.99103621
C        1.41911588       3.05173701      -1.79070094
C        2.50722741       2.50442709      -2.48645729
C        2.77113628       1.13135254      -2.36120936
C        1.95866858       0.32112358      -1.56446721
C        3.40849321       3.38895798      -3.30636513
N        3.51509950       2.94898664      -4.67384564
C        4.46984839       3.48426392      -5.50868012
O        5.28704891       4.32045489      -5.13290669
C        4.43153577       2.96546226      -6.87162972
N        3.43222154       2.14953436      -7.32882694
N        3.71136184       1.81769514      -8.57887385
N        4.83670684       2.47391719      -8.96959662
C        5.28063852       2.38562135     -10.32029320
C        6.15202622       3.32760678     -10.87426064
C        6.57727075       3.19759319     -12.19957199
C        6.13638773       2.12947987     -12.98431757
C        5.24797645       1.18145309     -12.45812057
C        4.74944862       0.01404892     -13.26407271
C        4.81351329       1.33194567     -11.12732114
C        5.37434891       3.14025528      -7.87552825
C        6.70917985       3.78377422      -7.80986026
H       -0.22762559       2.68549641      -0.45509095
H        1.19920622       4.11531840      -1.85931446
H        3.61908574       0.68705602      -2.87967341
H        2.17850304      -0.73970467      -1.47835918
H        4.40658522       3.41294575      -2.85347106
H        3.03815010       4.42041162      -3.32544015
H        2.80380288       2.34794877      -5.07647141
H        6.48826155       4.20148014     -10.32758491
H        7.25129191       3.94411680     -12.61492480
H        4.09810809      -0.63565713     -12.66977081
H        5.58863409      -0.59938983     -13.60798512
H        4.16943110       0.36264863     -14.12435331
H        4.12299624       0.59514176     -10.71579131
H        7.10706648       3.76422213      -6.79044355
H        6.65339910       4.82931822      -8.12594413
H        7.44409959       3.25477666      -8.42378506
C        6.62272997       2.05411157     -14.33760647
C        7.03004158       1.99099063     -15.47098593
Br       7.68863002       1.88892940     -17.30356465
C       -0.88177899      -0.88177899      -0.88177899
C       -2.01766991      -0.34290134      -1.48147770
C       -2.81992569      -1.14669932      -2.29492882
C       -2.49251033      -2.49322325      -2.51237821
C       -1.34172588      -3.01835968      -1.90361263
C       -0.54048605      -2.21645568      -1.08731764
C       -3.33198383      -3.34153918      -3.43029331
N       -3.81693449      -4.53508147      -2.78591584
C       -4.39682089      -5.54225344      -3.52371811
O       -4.49797954      -5.49566968      -4.74676127
C       -4.87022651      -6.66994813      -2.72845311
N       -4.89361726      -6.65697184      -1.35999374
N       -5.32744885      -7.83590172      -0.94458026
N       -5.66625100      -8.58822594      -2.02574370
C       -6.28224805      -9.85981801      -1.84448701
C       -7.01022867     -10.47971474      -2.86395023
C       -7.58688726     -11.73541571      -2.65213295
C       -7.44481725     -12.38278643      -1.42258150
C       -6.73510569     -11.77443487      -0.37800955
C       -6.55368582     -12.43460131       0.96071688
C       -6.17285692     -10.50238298      -0.59754019
C       -5.29835076      -7.91046728      -3.18131441
C       -5.27964064      -8.46706979      -4.55610389
H       -2.28391334       0.69955197      -1.32860041
H       -3.69906594      -0.71004088      -2.76473226
H       -1.05927752      -4.05650743      -2.07003023
H        0.34735106      -2.63958329      -0.62492531
H       -2.74238309      -3.61856341      -4.31205553
H       -4.20744189      -2.78787552      -3.78868446
H       -3.86623142      -4.58803558      -1.77395605
H       -7.19287809     -10.00364786      -3.82080064
H       -8.15480653     -12.19954730      -3.45597968
H       -5.93840829     -11.82371997       1.62990649
H       -6.04578835     -13.39781520       0.84637417
H       -7.52212765     -12.58300060       1.44869521
H       -5.61971371     -10.02769756       0.21348196
H       -4.51056758      -7.98414557      -5.16701902
H       -6.24294528      -8.31464421      -5.05107196
H       -5.03205008      -9.53268919      -4.55792203
C       -8.05767735     -13.67791061      -1.27886006
C       -8.57094768     -14.76257711      -1.15849335
Br      -9.40086240     -16.51639110      -0.96387057
C       -0.88177899       0.88177899       0.88177899
C       -2.21450693       0.53550683       1.09203519
C       -3.01924756       1.33701610       1.90529016
C       -2.49731939       2.48926651       2.51152589
C       -1.15092219       2.82058815       2.29218784
C       -0.34606268       2.02168886       1.47650783
C       -3.35459066       3.32164810       3.42757756
N       -3.41838969       4.70126574       3.01827635
C       -3.95331765       5.65513192       3.85434286
O       -4.36312203       5.39486739       4.98242107
C       -3.98157049       6.99920824       3.28784903
N       -3.66538191       7.26271905       1.98248188
N       -3.74063701       8.57057347       1.79672035
N       -4.18280016       9.15499858       2.94242192
C       -4.47083175      10.54989746       2.96582386
C       -5.29275415      11.11788978       3.94324971
C       -5.53900814      12.49395026       3.94147752
C       -4.97026091      13.31494914       2.96497512
C       -4.15712736      12.76740867       1.96301408
C       -3.52134667      13.61227607       0.89394751
C       -3.92968376      11.37791305       1.96518329
C       -4.25557794       8.19273304       3.94182147
C       -4.47052806       8.44458450       5.38770176
H       -2.63453033      -0.35641522       0.63484667
H       -4.05600643       1.04932679       2.06850587
H       -0.71975669       3.70171927       2.76433921
H        0.69442633       2.29291995       1.31866392
H       -2.96057460       3.26345800       4.44896943
H       -4.38318613       2.94408250       3.45673323
H       -3.20257218       4.96340848       2.06224240
H       -5.79824165      10.52322604       4.69585891
H       -6.18618102      12.91691536       4.70723713
H       -2.89177058      13.01180331       0.22864789
H       -2.87822954      14.37646527       1.34253456
H       -4.28873617      14.09052678       0.27717008
H       -3.29681552      10.95003807       1.18707571
H       -3.98879901       7.67456495       5.99836820
H       -5.53728054       8.44239688       5.62898403
H       -4.02598643       9.39292162       5.70375326
C       -5.26002669      14.72397331       3.03044802
C       -5.50270553      15.90403104       3.08528157
Br      -5.89509669      17.81208460       3.17394279
C        0.88177899      -0.88177899       0.88177899
C        0.31207943      -1.93173813       1.59823140
C        1.11941220      -2.74384897       2.39829266
C        2.49967138      -2.51048776       2.48795265
C        3.05743917      -1.45067986       1.75557914
C        2.25065975      -0.63584728       0.95775234
C        3.37292416      -3.41948543       3.31140673
N        4.13514600      -2.70191088       4.30087491
C        5.15710053      -3.32301117       4.98268074
O        5.49088612      -4.48464293       4.76488144
C        5.81251569      -2.47969731       5.97641476
N        5.34663977      -1.24039990       6.32354316
N        6.18286180      -0.71875899       7.20631003
N        7.14265498      -1.63598643       7.50157923
C        8.09631620      -1.36558946       8.52464741
C        8.82106738      -2.38590522       9.14692104
C        9.75968546      -2.07853392      10.13621654
C        9.98245371      -0.75266847      10.51506300
C        9.25561638       0.28738243       9.91931615
C        9.46379140       1.72895838      10.29273723
C        8.30111400      -0.03569961       8.93596648
C        6.99086975      -2.73450473       6.66475797
C        7.95429479      -3.85001943       6.49850010
H       -0.75450123      -2.13071432       1.53674869
H        0.66244646      -3.56637229       2.94502034
H        4.12843115      -1.25980148       1.79758255
H        2.69979063       0.17949248       0.39685940
H        4.05708533      -3.96498606       2.65093065
H        2.77345718      -4.16724343       3.84330126
H        3.84005874      -1.78086540       4.60729891
H        8.65564802      -3.43464264       8.92703594
H       10.31009702      -2.88700252      10.61323396
H        8.83486529       2.39454489       9.69190137
H       10.50363705       2.02320584      10.11679816
H        9.20592055       1.89320128      11.34371377
H        7.73514709       0.77193721       8.47071943
H        7.89877804      -4.27256216       5.49039197
H        7.74492494      -4.65456294       7.20917357
H        8.98804433      -3.51357540       6.62104158
C       10.97066663      -0.50985728      11.53392410
C       11.79829496      -0.30650292      12.38722027
Br      13.13649996       0.02230390      13.76692801
