157
Properties=species:S:1:pos:R:3 pbc="F F F"
C        0.00000000       0.00000000       0.00000000
C        0.88108833       0.88108833      -0.88108833
C        0.30065284       1.69283957      -1.85042644
C        1.10369657       2.50296799      -2.66600379
C        2.49520406       2.51604818      -2.51055956
C        3.06317876       1.67896561      -1.52862561
C        2.26099281       0.86724969      -0.71861733
N        3.36612074       3.32372490      -3.31048535
N        4.71341763       3.18357863      -3.16564717
N        5.33206424       3.95752857      -4.03734522
C        4.38561334       4.64505941      -4.74396789
C        4.74471899       5.58901576      -5.79835654
O        3.91755512       6.19390517      -6.47514972
N        6.09981143       5.74307750      -5.98119586
C        6.60863816       6.63488277      -6.98923866
C        8.11111796       6.62924845      -7.03337656
C        8.79570820       5.70847661      -7.84019237
C       10.19118728       5.70653964      -7.88737953
C       10.91742007       6.61806345      -7.12182747
C       10.24330731       7.52401140      -6.30576371
C        8.84915565       7.53133938      -6.25314253
C        3.12137460       4.29382284      -4.28213352
C        1.79687423       4.81851102      -4.69063325
H       -0.77845782       1.70112459      -1.98736967
H        0.58513122       3.08465834      -3.41494225
H        4.14080986       1.64254126      -1.37096021
H        2.72650624       0.23224775       0.03099891
H        6.73287901       5.21217611      -5.39237234
H        6.23183458       7.64451953      -6.78488837
H        6.19452140       6.33917384      -7.96096326
H        8.24259736       4.99068246      -8.44350621
H       10.71228464       4.99504804      -8.52339950
H       12.00316504       6.61293872      -7.16735906
H        8.33297406       8.24262095      -5.61201865
H        1.20603589       5.11984370      -3.82046658
H        1.24947774       4.07329194      -5.27594072
H        1.88014668       5.71257231      -5.31292707
C       10.99210661       8.46399756      -5.51246324
C       11.61922602       9.25123596      -4.84807409
Br      12.63322507      10.52413387      -3.77381303
C       -0.88108833      -0.88108833      -0.88108833
C       -2.11935405      -1.31030722      -0.41425758
C       -2.93339719      -2.12261795      -1.21665320
C       -2.51948831      -2.50334761      -2.49897588
C       -1.25727525      -2.06494416      -2.94855057
C       -0.44368556      -1.25832258      -2.14485169
N       -3.30756823      -3.32787432      -3.36488844
N       -2.77316023      -3.74186624      -4.54761696
N       -3.62478044      -4.54437562      -5.15778197
C       -4.75064600      -4.63556022      -4.38843442
C       -5.89038087      -5.45811704      -4.78359339
O       -6.90014371      -5.58937836      -4.09708794
N       -5.73832092      -6.08855157      -5.99721228
C       -6.77481446      -6.93988750      -6.51805763
C       -6.38990677      -7.54454313      -7.83929308
C       -5.69396288      -8.76135098      -7.88906332
C       -5.34171985      -9.32757793      -9.11580866
C       -5.67265239      -8.67942243     -10.30523616
C       -6.34918889      -7.46224187     -10.26165167
C       -6.70383206      -6.89026231      -9.03954319
C       -4.59881632      -3.84336179      -3.25515285
C       -5.56785012      -3.57072605      -2.16744232
H       -2.46286822      -1.02475828       0.57759005
H       -3.86819474      -2.43993563      -0.77660144
H       -0.88137089      -2.33895079      -3.93398965
H        0.52473615      -0.93455745      -2.51793379
H       -4.87853510      -5.94307676      -6.51581560
H       -7.69463343      -6.35046529      -6.61614376
H       -6.98607770      -7.72588629      -5.78269452
H       -5.42858646      -9.27921324      -6.96898634
H       -4.81076175     -10.27603811      -9.14393233
H       -5.39868696      -9.12876183     -11.25601404
H       -7.23139066      -5.93916770      -9.01705530
H       -5.66488679      -2.49627376      -1.98518562
H       -5.26983933      -4.08197077      -1.24690029
H       -6.57385211      -3.91898698      -2.41280698
C       -6.68904101      -6.79039082     -11.48913557
C       -6.97366716      -6.22771558     -12.51715333
Br      -7.43388358      -5.31791729     -14.17937110
C       -0.88108833       0.88108833       0.88108833
C       -1.09759815       2.21110890       0.53521179
C       -1.90342853       3.02794743       1.34129239
C       -2.50927912       2.51692967       2.49560301
C       -2.26906545       1.16922485       2.83247968
C       -1.46066327       0.35640324       2.02979331
N       -3.34415644       3.30054473       3.35562982
N       -3.79528470       2.75011747       4.51724126
N       -4.48094207       3.65214333       5.19385262
C       -4.51514184       4.80259005       4.45690875
C       -5.19696234       6.00303338       4.93209558
O       -5.21419437       7.06198425       4.31043139
N       -5.81955394       5.85435659       6.15017425
C       -6.52771061       6.95261237       6.75243661
C       -7.10667768       6.57878578       8.08827951
C       -6.35092761       6.73373066       9.25971890
C       -6.88986070       6.39326121      10.50198455
C       -8.18583995       5.88556568      10.58590536
C       -8.93527930       5.71377484       9.42402828
C       -8.40308135       6.05125770       8.17929851
C       -3.83196398       4.60373291       3.26163406
C       -3.65489979       5.53154068       2.11957804
H       -0.63943634       2.62908190      -0.35848179
H       -2.00303356       4.05665818       1.02504007
H       -2.70763715       0.72233319       3.72434099
H       -1.29347720      -0.67956090       2.31383879
H       -5.76615658       4.95485195       6.61641894
H       -7.31891433       7.27688022       6.06544794
H       -5.83894335       7.80003532       6.85567983
H       -5.33770642       7.12880721       9.21027241
H       -6.29931621       6.52617298      11.40524299
H       -8.59957548       5.62695844      11.55692891
H       -8.99678531       5.91244714       7.27838122
H       -3.92224910       5.04977359       1.17432348
H       -2.62482645       5.89839768       2.07548627
H       -4.30157246       6.40881883       2.19525477
C      -10.27273152       5.18688760       9.50894828
C      -11.39284775       4.74561954       9.58006877
Br     -13.20398097       4.03212641       9.69506459
C        0.88108833      -0.88108833       0.88108833
C        1.14439131      -0.50512775       2.19439979
C        1.95553267      -1.30779383       3.00934185
C        2.50141243      -2.50066062       2.51973874
C        2.22946604      -2.85793876       1.18336519
C        1.42378530      -2.05350273       0.36957179
N        3.33351730      -3.36246989       3.30434380
N        3.91332861      -4.44134901       2.70796582
N        4.69172186      -5.05833904       3.57687713
C        4.59977613      -4.40249605       4.77236845
C        5.34953866      -4.83400191       5.94855073
O        5.31644190      -4.24469487       7.02547324
N        6.11158554      -5.96242263       5.75007661
C        6.91218118      -6.50525454       6.81532388
C        7.68114636      -7.71894472       6.37365189
C        8.95572414      -7.58505497       5.80359806
C        9.67398985      -8.71202490       5.39909170
C        9.12252669      -9.98369498       5.55108931
C        7.85000118     -10.12177035       6.10131089
C        7.12628794      -9.00016872       6.50718090
C        3.71373421      -3.33764581       4.64595094
C        3.24348703      -2.38408165       5.67844982
H        0.72886065       0.41597406       2.59714986
H        2.13873856      -0.93779322       4.00820003
H        2.63590171      -3.77046082       0.74794881
H        1.23047924      -2.35434115      -0.65706530
H        6.09966408      -6.40200181       4.83576157
H        6.25342084      -6.75047016       7.65735148
H        7.59635198      -5.72581467       7.17249185
H        9.39950040      -6.59888231       5.67840332
H       10.66533109      -8.59826458       4.96713651
H        9.68969168     -10.85607636       5.23769478
H        6.13322488      -9.11940846       6.93498033
H        2.15171652      -2.31262623       5.68200343
H        3.68367398      -1.39473683       5.52029958
H        3.52055004      -2.69738614       6.68770987
C        7.27811833     -11.43423136       6.25621771
C        6.79916645     -12.53341745       6.38595217
Br       6.02474176     -14.31070839       6.59572183
