170
Properties=species:S:1:pos:R:3 pbc="F F F"
C        1.79099235       1.79099235      -1.79099235
C        1.21055686       2.60274359      -2.76033047
C        2.01360059       3.41287202      -3.57590781
C        3.40510809       3.42595220      -3.42046359
C        3.97308279       2.58886964      -2.43852963
C        3.17089683       1.77715371      -1.62852136
N        4.27602476       4.23362893      -4.22038938
N        5.62332165       4.09348266      -4.07555120
N        6.24196826       4.86743260      -4.94724924
C        5.29551737       5.55496343      -5.65387191
C        5.65462302       6.49891978      -6.70826057
O        4.82745915       7.10380920      -7.38505374
N        7.00971545       6.65298152      -6.89109988
C        7.51854219       7.54478679      -7.89914269
C        9.02102199       7.53915247      -7.94328058
C        9.70561222       6.61838063      -8.75009640
C       11.10109130       6.61644367      -8.79728355
C       11.82732409       7.52796747      -8.03173149
C       11.15321133       8.43391543      -7.21566774
Br      12.13639948       9.66813566      -6.17404867
C        9.75905967       8.44124341      -7.16304656
C        4.03127862       5.20372687      -5.19203754
C        2.70677825       5.72841505      -5.60053728
H        0.13144621       2.61102862      -2.89727370
H        1.49503524       3.99456237      -4.32484628
H        5.05071389       2.55244529      -2.28086423
H        3.63641026       1.14215178      -0.87890512
H        7.64278304       6.12208013      -6.30227637
H        7.14173861       8.55442356      -7.69479239
H        7.10442542       7.24907786      -8.87086729
H        9.15250139       5.90058649      -9.35341024
H       11.62218867       5.90495207      -9.43330352
H       12.91306906       7.52284275      -8.07726309
H        9.24287809       9.15252497      -6.52192268
H        2.11593991       6.02974773      -4.73037060
H        2.15938176       4.98319596      -6.18584474
H        2.79005071       6.62247633      -6.22283109
C       -1.79099235      -1.79099235      -1.79099235
C       -3.17514333      -1.73634016      -1.66214742
C       -3.99141219      -2.54502425      -2.46594398
C       -3.42907145      -3.40797330      -3.41447913
C       -2.02415468      -3.45435842      -3.52196896
C       -1.21045577      -2.65035097      -2.71576516
N       -4.21033540      -4.25462827      -4.26507939
N       -3.57230648      -5.14459025      -5.07545878
N       -4.46579071      -5.87303623      -5.71782316
C       -5.70993456      -5.43786758      -5.35655057
C       -6.92507365      -6.04607076      -5.89065895
O       -8.05610866      -5.70220300      -5.55801042
N       -6.69974051      -7.05266637      -6.80138998
C       -7.79963139      -7.75263215      -7.41020813
C       -7.32706862      -8.82621032      -8.35017610
C       -7.07235460     -10.12261439      -7.87912026
C       -6.63984981     -11.12259125      -8.75237747
C       -6.44817824     -10.83547329     -10.10337153
C       -6.68352761      -9.54537572     -10.57389116
Br      -6.42054322      -9.15329213     -12.40474847
C       -7.11525617      -8.54106131      -9.70703215
C       -5.58548576      -4.38194694      -4.45961033
C       -6.64439158      -3.54815733      -3.84318166
H       -3.63438266      -1.07145793      -0.93390794
H       -5.05513579      -2.46923519      -2.29007291
H       -1.53306235      -4.11434986      -4.23661119
H       -0.12989098      -2.70658835      -2.82098783
H       -5.74155132      -7.29324463      -7.03234358
H       -8.42713224      -7.02481394      -7.93900838
H       -8.42359119      -8.18328597      -6.61749341
H       -7.21737157     -10.36204702      -6.82707953
H       -6.45439406     -12.12688390      -8.37916630
H       -6.11548665     -11.62032856     -10.77735969
H       -7.29539836      -7.53699653     -10.08493085
H       -6.42873727      -2.48243561      -3.96488536
H       -6.75750536      -3.78919076      -2.78172634
H       -7.61931116      -3.70570295      -4.31034401
C       -1.79099235       1.79099235       1.79099235
C       -1.21004470       2.60793626       2.75564996
C       -2.01307026       3.41810672       3.57120343
C       -3.40512670       3.42600357       3.42039360
C       -3.97357076       2.58372804       2.44318326
C       -3.17137898       1.77198593       1.63320699
N       -4.27606863       4.23344243       4.22053200
N       -5.62336449       4.08829827       4.08069274
N       -6.24168545       4.86309689       4.95186776
C       -5.29518900       5.55616484       5.65299888
C       -5.65393134       6.50245125       6.70542078
O       -4.82654275       7.11237890       7.37740043
N       -7.00891387       6.65258690       6.89229608
C       -7.51735558       7.54606559       7.89905050
C       -9.01965170       7.53554718       7.94825617
C       -9.69843739       6.61520417       8.76044769
C      -11.09373620       6.60875172       8.81233060
C      -11.82558836       7.51525999       8.04617470
C      -11.15726118       8.42071310       7.22482021
Br     -12.14807497       9.64812572       6.18238312
C       -9.76332609       8.43253380       7.16748974
C       -4.03133097       5.20761464       5.18809742
C       -2.70724058       5.73810611       5.59038387
H       -0.13051536       2.62029584       2.88893732
H       -1.49395711       4.00404440       4.31644238
H       -5.05159541       2.54316475       2.28926324
H       -3.63726392       1.13291268       0.88729056
H       -7.64216236       6.11759220       6.30738498
H       -7.14463380       8.55626631       7.69005445
H       -7.09899495       7.25501273       8.87036290
H       -9.14089972       5.90129829       9.36430011
H      -11.61030627       5.89766022       9.45247777
H      -12.91115138       7.50665169       8.09537183
H       -9.25168815       9.14338165       6.52225594
H       -2.12033617       6.03849001       4.71723206
H       -2.15538533       4.99669595       6.17634119
H       -2.79143244       6.63396976       6.20995592
C        1.79099235      -1.79099235       1.79099235
C        3.17591036      -1.71446944       1.68325112
C        3.99224821      -2.52297233       2.48715988
C        3.42897300      -3.40776389       3.41478698
C        2.02348091      -3.47600845       3.50099270
C        1.20981578      -2.67210881       2.69464731
N        4.21019382      -4.25542125       4.26442800
N        3.57363801      -5.16628843       5.05242906
N        4.46833073      -5.89108880       5.69723057
C        5.71105156      -5.43274578       5.36055538
C        6.92713242      -6.03109588       5.90357507
O        8.05769304      -5.66608779       5.59254125
N        6.70344489      -7.05408147       6.79627049
C        7.80456771      -7.74693447       7.41096949
C        7.33426233      -8.84088816       8.32830455
C        7.10540747     -10.13379293       7.83488885
C        6.67503647     -11.15260450       8.68717755
C        6.45968239     -10.88811701      10.03922365
C        6.66927687      -9.60178928      10.53172835
Br       6.37415507      -9.24042166      12.36400709
C        7.09871581      -8.57874606       9.68588776
C        5.58410907      -4.36570027       4.47723369
C        6.63947435      -3.50775672       3.88849951
H        3.63582683      -1.03242082       0.97150087
H        5.05717618      -2.42925630       2.32801141
H        1.53184291      -4.15342814       4.19875236
H        0.12878413      -2.74548509       2.78319794
H        5.74564858      -7.31183470       7.00965626
H        8.41362987      -7.01795664       7.95936804
H        8.44615796      -8.15686557       6.62134704
H        7.26909959     -10.35566075       6.78173778
H        6.50973050     -12.15389336       8.29682039
H        6.12882891     -11.68749016      10.69685583
H        7.25864496      -7.57783048      10.08085029
H        6.40648783      -2.44715953       4.02241088
H        6.77142948      -3.73154785       2.82544513
H        7.60974847      -3.65803342       4.36757623
C       -0.00445707       0.01189536      -1.78238275
H       -0.66409135       0.67374010      -2.43557963
H        0.65740317      -0.63156657      -2.45157240
C       -0.90989263      -0.90692880      -0.91072765
C        0.90977584       0.90977584      -0.90977584
C       -0.00465871       1.77757030       0.00794375
H       -0.66225468       2.44313916      -0.64384735
H        0.64322798       2.43503045       0.67728295
C       -1.78241447       0.00034974      -0.00472694
H       -2.45427497      -0.65498947       0.64260836
H       -2.43311707       0.67328779      -0.65473579
C       -0.91132561       0.90220522       0.91563759
C       -0.01476271      -0.02253852       1.78660255
H       -0.67934791      -0.69751639       2.42135241
H        0.63392994       0.61504881       2.47327442
C        0.01484550      -1.77751727      -0.01636693
H        0.67870853      -2.42144646      -0.68295456
H       -0.62264859      -2.45592969       0.64226336
C        1.78714474       0.01002794       0.00389507
H        2.44202412       0.67113390       0.66197326
H        2.45385902      -0.65136977      -0.64189061
C        0.91606151      -0.90478549       0.90901405
