149
Properties=species:S:1:pos:R:3 pbc="F F F"
C        0.00000000       0.00000000       0.00000000
C        0.88108833       0.88108833      -0.88108833
C        0.30065284       1.69283957      -1.85042644
C        1.10369657       2.50296799      -2.66600379
C        2.49520406       2.51604818      -2.51055956
C        3.06317876       1.67896561      -1.52862561
C        2.26099281       0.86724969      -0.71861733
N        3.36612074       3.32372490      -3.31048535
N        4.71341763       3.18357863      -3.16564717
N        5.33206424       3.95752857      -4.03734522
C        4.38561334       4.64505941      -4.74396789
C        4.74471899       5.58901576      -5.79835654
O        3.91755512       6.19390517      -6.47514972
N        6.09981143       5.74307750      -5.98119586
C        6.60863816       6.63488277      -6.98923866
C        8.11111796       6.62924845      -7.03337656
C        8.79570820       5.70847661      -7.84019237
C       10.19118728       5.70653964      -7.88737953
C       10.91742007       6.61806345      -7.12182747
C       10.24330731       7.52401140      -6.30576371
Br      11.22649546       8.75823164      -5.26414465
C        8.84915565       7.53133938      -6.25314253
C        3.12137460       4.29382284      -4.28213352
C        1.79687423       4.81851102      -4.69063325
H       -0.77845782       1.70112459      -1.98736967
H        0.58513122       3.08465834      -3.41494225
H        4.14080986       1.64254126      -1.37096021
H        2.72650624       0.23224775       0.03099891
H        6.73287901       5.21217611      -5.39237234
H        6.23183458       7.64451953      -6.78488837
H        6.19452140       6.33917384      -7.96096326
H        8.24259736       4.99068246      -8.44350621
H       10.71228464       4.99504804      -8.52339950
H       12.00316504       6.61293872      -7.16735906
H        8.33297406       8.24262095      -5.61201865
H        1.20603589       5.11984370      -3.82046658
H        1.24947774       4.07329194      -5.27594072
H        1.88014668       5.71257231      -5.31292707
C       -0.88108833      -0.88108833      -0.88108833
C       -2.01719175      -1.48021778      -0.34650932
C       -2.83017704      -2.29365101      -1.14884029
C       -2.51886724      -2.50545609      -2.49748847
C       -1.35811798      -1.89635877      -3.01629324
C       -0.54490505      -1.08872870      -2.21322608
N       -3.31165648      -3.32223174      -3.36644277
N       -2.86745281      -3.56376933      -4.63142130
N       -3.69839571      -4.38968110      -5.23886122
C       -4.72355677      -4.67108309      -4.38000077
C       -5.81525338      -5.56747270      -4.74936522
O       -6.73036993      -5.86850549      -3.98773459
N       -5.73225860      -6.06046656      -6.03135963
C       -6.73221042      -6.96258764      -6.53796154
C       -6.43244804      -7.39541796      -7.94587697
C       -5.63327897      -8.52223849      -8.18885971
C       -5.35958354      -8.92941916      -9.49610375
C       -5.87349382      -8.20965903     -10.57415813
C       -6.65413514      -7.07984616     -10.33910113
Br      -7.34869850      -6.10047526     -11.79969798
C       -6.93123893      -6.66678267      -9.03561596
C       -4.52949585      -3.97844178      -3.18939333
C       -5.40051350      -3.91343066      -1.99207434
H       -2.28026497      -1.32769009       0.69791860
H       -3.67929109      -2.74761989      -0.65782083
H       -1.06340294      -2.03466943      -4.05623896
H        0.34391066      -0.63120277      -2.64046298
H       -4.94934070      -5.77703088      -6.61105589
H       -7.70899387      -6.46630709      -6.48594153
H       -6.78961162      -7.83261921      -5.87242767
H       -5.22489126      -9.09433967      -7.35755511
H       -4.74692951      -9.80995709      -9.67384558
H       -5.65942039      -8.53552452     -11.58851792
H       -7.54136896      -5.78274538      -8.86349932
H       -5.57938998      -2.87725838      -1.68969782
H       -4.96039866      -4.47560053      -1.16271121
H       -6.38910335      -4.34047324      -2.17606946
C       -0.88108833       0.88108833       0.88108833
C       -1.00125921       2.23903974       0.60361989
C       -1.80648421       3.05582699       1.41035715
C       -2.50803114       2.51767451       2.49610616
C       -2.36469544       1.14118993       2.76488462
C       -1.55688371       0.32806114       1.96191497
N       -3.34729933       3.30004547       3.35298619
N       -3.89730332       2.71296378       4.45237634
N       -4.57022765       3.61476867       5.14194171
C       -4.49546545       4.80490081       4.47427438
C       -5.13571867       6.01523678       4.98113585
O       -5.05608751       7.10667241       4.42385009
N       -5.83734035       5.83560804       6.15113640
C       -6.51718932       6.93851369       6.77705658
C       -7.19505530       6.52525367       8.05343400
C       -6.50309497       6.56852255       9.27275965
C       -7.13359316       6.19138907      10.46012422
C       -8.45881759       5.75808650      10.44040689
C       -9.14600896       5.69711277       9.22996069
Br     -10.94182388       5.10624263       9.20080523
C       -8.52224427       6.07181089       8.03958240
C       -3.75440831       4.63326552       3.30965712
C       -3.45744480       5.61172080       2.23685290
H       -0.46771189       2.67859678      -0.23627221
H       -1.82889386       4.10483420       1.15100375
H       -2.88023899       0.67174504       3.60232729
H       -1.46560631      -0.73039659       2.19254537
H       -5.86266021       4.90967819       6.56508906
H       -7.24641483       7.34765712       6.06717053
H       -5.78916108       7.73611745       6.96937998
H       -5.46807905       6.90453262       9.30417437
H       -6.59150393       6.23767925      11.40154901
H       -8.94372698       5.47034580      11.36939005
H       -9.06795455       6.01969863       7.09996049
H       -3.69458057       5.20081593       1.25094967
H       -2.40754369       5.91829832       2.27286838
H       -4.05701750       6.52039673       2.32823183
C        0.88108833      -0.88108833       0.88108833
C        1.45583317      -0.35462366       2.03346202
C        2.26911008      -1.15695042       2.84660785
C        2.50514544      -2.49768682       2.51897954
C        1.92055970      -3.00816324       1.34204704
C        1.11307722      -2.20501325       0.52876935
N        3.32303287      -3.36627832       3.31101979
N        3.58948808      -4.62098441       2.85217095
N        4.41212353      -5.22854441       3.68627009
C        4.66605641      -4.38083193       4.72775230
C        5.55189533      -4.75317201       5.82702395
O        5.82847093      -4.00077138       6.75736770
N        6.06478292      -6.02655305       5.73274881
C        6.95969039      -6.53467335       6.73839585
C        7.41740635      -7.93163957       6.42469705
C        8.55910047      -8.14656748       5.63870923
C        8.98931927      -9.44363656       5.35215062
C        8.27809308     -10.53940007       5.83981783
C        7.13379124     -10.33216778       6.60712340
Br       6.16600805     -11.81679357       7.26607012
C        6.69769672      -9.03899177       6.89694907
C        3.95890769      -3.19764108       4.54078219
C        3.86376546      -2.01428776       5.42796527
H        1.28422074       0.68352096       2.30933667
H        2.70351137      -0.67192556       3.70929488
H        2.07834967      -4.04156808       1.03439358
H        0.67475811      -2.62573830      -0.37274132
H        5.80122237      -6.59874209       4.93746301
H        6.44863599      -6.50415978       7.70844672
H        7.81894880      -5.85754878       6.81816091
H        9.12479228      -7.30118273       5.25081102
H        9.88113084      -9.59963161       4.74996973
H        8.62185753     -11.54569641       5.61590888
H        5.80250549      -8.88863429       7.49647388
H        2.82079376      -1.72957284       5.59597957
H        4.42001505      -1.17052236       5.00817299
H        4.27912871      -2.20656877       6.41994857
