149
Properties=species:S:1:pos:R:3 pbc="F F F"
C        0.00000000       0.00000000       0.00000000
C        0.88180757       0.88180757      -0.88180757
C        2.23956745       1.00843515      -0.59653661
C        3.04348814       1.82150436      -1.39900757
C        2.49525381       2.50879149      -2.49282620
C        1.12687995       2.36717257      -2.76724582
C        0.32133463       1.55727435      -1.96336120
C        3.35360455       3.40832248      -3.34070456
N        4.38745110       2.68535384      -4.03527788
C        5.27133760       3.34838538      -4.85709324
O        5.23748038       4.56521380      -5.00870255
C        6.23442338       2.47846508      -5.52821028
N        6.26893384       1.13103004      -5.30324769
N        7.23428046       0.61487523      -6.04020697
N        7.83335522       1.60273763      -6.76265017
C        8.89988476       1.25827872      -7.65579446
C        9.56004021       2.19322320      -8.46253075
C       10.59173699       1.79434623      -9.32462624
C       10.97350042       0.45850326      -9.38895355
Br      12.36092156      -0.06844671     -10.55758589
C       10.33435489      -0.48720313      -8.59683891
C        9.30444859      -0.09011969      -7.73596423
C        7.22119952       2.81673792      -6.44889663
C        7.57222482       4.14721000      -6.99889634
H        2.67979967       0.48477594       0.24791435
H        4.10126380       1.92276494      -1.16285799
H        0.67528504       2.89371813      -3.60596266
H       -0.73824902       1.46448709      -2.18688479
H        3.81993973       4.17689533      -2.71259384
H        2.75019804       3.93349877      -4.09093055
H        4.43054159       1.67281302      -3.99283241
H        9.31839670       3.24596469      -8.47312380
H       11.08778012       2.53929499      -9.94302635
H       10.62370731      -1.53429597      -8.63843611
H        8.82697604      -0.86099774      -7.13159495
H        6.96657181       4.94980213      -6.57352249
H        7.40271126       4.17721946      -8.07957596
H        8.61256515       4.40025395      -6.77308106
C       -0.88180757      -0.88180757      -0.88180757
C       -1.86969256      -1.67397261      -0.30087405
C       -2.67030794      -2.48607182      -1.10762030
C       -2.49023759      -2.50743831      -2.49919560
C       -1.49290750      -1.70101703      -3.06737380
C       -0.68936517      -0.89129774      -2.26130726
C       -3.33196096      -3.40375179      -3.36691884
N       -4.72677639      -3.04683207      -3.33447436
C       -5.64743433      -3.76153320      -4.06784870
O       -5.33175348      -4.73408745      -4.74555580
C       -7.01463094      -3.25548586      -3.97098196
N       -7.33636904      -2.19383654      -3.17300599
N       -8.63169755      -1.96956714      -3.28809798
N       -9.17229001      -2.86236775      -4.16408526
C      -10.57265543      -2.78305676      -4.45824575
C      -11.21779696      -3.63352819      -5.36446900
C      -12.59070720      -3.50167771      -5.61832455
C      -13.33170585      -2.51956211      -4.96968927
Br     -15.17935399      -2.34756509      -5.32314166
C      -12.71399039      -1.66502224      -4.06497805
C      -11.34366131      -1.79579031      -3.81084150
C       -8.16086863      -3.71166481      -4.61430063
C       -8.31500385      -4.83520023      -5.56812708
H       -2.02109015      -1.67088946       0.77531835
H       -3.43300584      -3.10947615      -0.64440474
H       -1.32849453      -1.70318028      -4.14329101
H        0.08292783      -0.27795113      -2.71809957
H       -3.22525735      -4.44488824      -3.03928331
H       -3.00001308      -3.36322579      -4.41138848
H       -5.03920829      -2.21980206      -2.83717668
H      -10.71120385      -4.41591258      -5.91036876
H      -13.06853378      -4.17314218      -6.32842551
H      -13.28252064      -0.89338166      -3.55194517
H      -10.89534537      -1.10648856      -3.09573931
H       -7.37936888      -5.37105528      -5.73947226
H       -8.64151550      -4.47097124      -6.54701994
H       -9.02332144      -5.57655860      -5.18602012
C       -0.88180757       0.88180757       0.88180757
C       -0.29973541       1.86128785       1.68351596
C       -1.10655167       2.66187093       2.49557747
C       -2.49930046       2.49018782       2.50738322
C       -3.06858800       1.50127143       1.69143889
C       -2.26248378       0.69775122       0.88173518
C       -3.36735659       3.33173837       3.40353663
N       -3.32425212       4.72847307       3.05535764
C       -4.05637385       5.64923755       3.77120483
O       -4.74192246       5.33180140       4.73767287
C       -3.94810538       7.01886693       3.27412644
N       -3.14171068       7.34216615       2.21933473
N       -3.24755318       8.63951359       2.00229589
N       -4.12568198       9.18001632       2.89304471
C       -4.41083437      10.58261076       2.82051281
C       -5.31830364      11.22810089       3.66938962
C       -5.56299816      12.60331404       3.54439725
C       -4.90387653      13.34628809       2.57079261
Br      -5.24503296      15.19707464       2.40795315
C       -3.99772763      12.72825700       1.71800604
C       -3.75272982      11.35562977       1.84193354
C       -4.58722257       8.16622346       3.73338804
C       -5.54694784       8.31935683       4.85202649
H        0.77735610       2.00611691       1.68790046
H       -0.64252981       3.41791823       3.12643870
H       -4.14547783       1.34343140       1.68605660
H       -2.72020246      -0.06799125       0.26091165
H       -3.04674909       3.21670646       4.44597334
H       -4.41355731       3.00643681       3.35463324
H       -2.82001595       5.04287914       2.23329193
H       -5.87204725      10.72010944       4.44532850
H       -6.27427471      13.08138411       4.21444265
H       -3.47653890      13.29831898       0.95298957
H       -3.03616376      10.90714708       1.15426240
H       -5.72725102       7.38154734       5.38109806
H       -6.52159209       8.65405691       4.48385768
H       -5.16508348       9.02080490       5.60001179
C        0.88180757      -0.88180757       0.88180757
C        1.34729765      -0.39564333       2.10159823
C        2.16025920      -1.20014983       2.90359104
C        2.50868201      -2.49584954       2.49233995
C        2.02841640      -2.97022547       1.26265646
C        1.21839806      -2.16533376       0.45823835
C        3.40842489      -3.35304728       3.34115942
N        2.81513012      -3.68127204       4.61168067
C        3.49789045      -4.45780412       5.52112167
O        4.63229700      -4.87244637       5.30665336
C        2.75232337      -4.74422038       6.74455499
N        1.50558542      -4.23078652       6.96683963
N        1.08859755      -4.65651513       8.14424998
N        2.03924165      -5.45811368       8.70138769
C        1.78144178      -6.05308707       9.97942909
C        2.67960106      -6.91340958      10.62278351
C        2.36749354      -7.47294943      11.87026649
C        1.15591297      -7.17853760      12.48650666
Br       0.74363492      -7.94197021      14.16445562
C        0.24938148      -6.32622139      11.86838781
C        0.55993840      -5.76715010      10.62320462
C        3.12802556      -5.52732429       7.83148421
C        4.38446894      -6.28117760       8.05268461
H        1.08864499       0.60616058       2.43417686
H        2.52786421      -0.80860929       3.85041323
H        2.28839599      -3.96915231       0.91741752
H        0.86076695      -2.54690097      -0.49454506
H        4.35812693      -2.83376592       3.51753604
H        3.64988355      -4.29349347       2.83125034
H        1.85962640      -3.41399448       4.82256614
H        3.63640146      -7.19383060      10.20725314
H        3.08096031      -8.14030217      12.34883898
H       -0.70088995      -6.08871903      12.34001838
H       -0.17688845      -5.10438757      10.17007412
H        5.09929445      -6.15310763       7.23749434
H        4.18592834      -7.35532182       8.11825652
H        4.89223337      -5.93545361       8.95821319
