170
Properties=species:S:1:pos:R:3 pbc="F F F"
C        1.79143865       1.79143865      -1.79143865
C        2.05672670       3.10407177      -1.41358709
C        2.86492541       3.90823157      -2.22383537
C        3.42245136       3.41232953      -3.41459516
C        3.12337841       2.08937141      -3.78357219
C        2.31869580       1.28008530      -2.97391843
C        4.26104749       4.30153454      -4.26070358
C        5.29370722       3.80482817      -4.96390132
C        6.13078784       4.66811703      -5.86060327
H        7.18722613       4.48774335      -5.62237479
C        5.87895680       4.33074617      -7.32859812
C        6.93743259       3.89086999      -8.14038098
C        6.72277171       3.58151319      -9.48609969
C        5.44841992       3.71265290     -10.03250437
C        4.38599262       4.15226669      -9.24751854
C        4.59988695       4.46094508      -7.90228692
N        5.86725474       6.06207332      -5.58432871
C        4.76646248       6.43126929      -4.88214913
N        3.95461889       5.64299647      -4.26777332
S        4.56582161       8.15384845      -4.86187986
C        6.13505679       8.43139761      -5.71667859
C        6.68868678       7.06450221      -6.03508541
O        7.75985070       6.89485333      -6.60841461
H        1.63936756       3.51598732      -0.49877136
H        3.05620757       4.93613666      -1.91954918
H        3.49720070       1.67324838      -4.71600164
H        2.10457434       0.25978433      -3.28085718
H        5.55961289       2.75350105      -4.92430859
H        7.94354247       3.79803132      -7.73482500
H        7.55612330       3.24604668     -10.09811885
H        3.39020989       4.25883703      -9.67018165
H        3.75537083       4.80195648      -7.30489859
H        6.82955458       8.96626709      -5.06437197
H        5.96798727       8.98674274      -6.64259803
C        5.22829038       3.39403428     -11.41945251
C        5.04393189       3.12719119     -12.58102159
Br       4.74583981       2.69572848     -14.45918054
C       -1.79143865      -1.79143865      -1.79143865
C       -1.46964733      -1.97160441      -3.13313381
C       -2.27968054      -2.78010901      -3.93720280
C       -3.41408956      -3.42254302      -3.41274347
C       -3.72816096      -3.20872804      -2.05943301
C       -2.91828085      -2.40401449      -1.25040419
C       -4.26280765      -4.25903056      -4.30144741
C       -4.88740667      -5.35008888      -3.82494116
C       -5.78531674      -6.18897260      -4.68521880
H       -5.48616888      -7.23922503      -4.57195036
C       -7.24444549      -6.03070487      -4.26315072
C       -7.97902788      -7.15034752      -3.83930816
C       -9.31581488      -7.02141929      -3.45315043
C       -9.93054848      -5.77225349      -3.49077521
C       -9.22287569      -4.65007448      -3.91282768
C       -7.88657713      -4.77829694      -4.29824488
N       -5.59517649      -5.84293833      -6.07554194
C       -4.96833330      -4.69027146      -6.42127613
N       -4.35467414      -3.88752191      -5.62319264
S       -5.04750566      -4.40404049      -8.13000376
C       -5.83704241      -5.99994044      -8.44615014
C       -6.05628863      -6.63617811      -7.09580766
O       -6.56644156      -7.74274672      -6.95393037
H       -0.59918913      -1.48745810      -3.56747901
H       -2.02012873      -2.90433926      -4.98742541
H       -4.61811868      -3.65057218      -1.61775986
H       -3.18200110      -2.25676601      -0.20644874
H       -4.78017328      -5.66516379      -2.79208546
H       -7.52001498      -8.13738671      -3.81899710
H       -9.86768664      -7.90098425      -3.13161794
H       -9.69915514      -3.67354653      -3.94652689
H       -7.35013787      -3.88808240      -4.62400563
H       -5.17990691      -6.63235755      -9.04792918
H       -6.79767845      -5.85397884      -8.94567075
C      -11.30824778      -5.64046971      -3.09305968
C      -12.46207096      -5.53010080      -2.75997291
Br     -14.32770544      -5.35164360      -2.22139979
C       -1.79143865       1.79143865       1.79143865
C       -2.46138895       2.87711046       1.23588615
C       -3.26811514       3.68203316       2.04684404
C       -3.42141638       3.41085201       3.41710766
C       -2.71871041       2.32002802       3.95758358
C       -1.91384280       1.50970519       3.14915153
C       -4.27167981       4.29915701       4.25244879
C       -4.97269819       3.80292270       5.28681582
C       -5.80443122       4.68028429       6.17479262
H       -6.80280428       4.23205395       6.26248603
C       -5.17880900       4.79640573       7.56308635
C       -5.89681895       4.37684144       8.69502318
C       -5.33856389       4.47989885       9.97192186
C       -4.05876602       5.00660698      10.12820418
C       -3.33148297       5.43372194       9.02057294
C       -3.88873827       5.33030817       7.74407251
N       -5.97589874       5.97725648       5.56050155
C       -5.17712553       6.36737531       4.53538006
N       -4.33107501       5.62928488       3.90502880
S       -5.44134163       8.02833292       4.11187536
C       -6.81961629       8.19249348       5.27102322
C       -6.92030213       6.87275799       5.99521428
O       -7.76951075       6.64335168       6.85025622
H       -2.36203023       3.11239223       0.17970377
H       -3.77892880       4.53338185       1.59958275
H       -2.77229513       2.09426899       5.01988660
H       -1.38292206       0.67089053       3.59140326
H       -4.95740530       2.74633207       5.53368516
H       -6.90473942       3.97783375       8.59382563
H       -5.91223376       4.15273906      10.83531600
H       -2.33339219       5.84803764       9.13779873
H       -3.30299121       5.66879800       6.89043670
H       -7.74771380       8.38503623       4.72744362
H       -6.61763521       8.99214986       5.98754297
C       -3.48450921       5.11279926      11.44446871
C       -3.00356912       5.20173530      12.54684025
Br      -2.22592968       5.34553734      14.32928180
C        1.79143865      -1.79143865       1.79143865
C        2.76883473      -1.21137813       2.59417270
C        3.57413384      -2.02244977       3.40040873
C        3.41055379      -3.41797357       3.42084869
C        2.42933710      -3.98065095       2.58633396
C        1.61874504      -3.17267523       1.78127925
C        4.29731422      -4.25040534       4.27556605
C        3.83796672      -5.37727087       4.84719913
C        4.71985383      -6.26124964       5.67840467
H        4.20320165      -6.46971319       6.62442941
C        5.00413752      -7.57701028       4.95715328
C        4.62798259      -8.79616839       5.54453258
C        4.88437566     -10.00812744       4.89788150
C        5.52223558     -10.01154380       3.65979780
C        5.90871444      -8.81512910       3.06193431
C        5.65208088      -7.60350776       3.70753031
N        5.94151228      -5.56324267       6.00890183
C        6.30400643      -4.44555081       5.33032364
N        5.58373137      -3.80517338       4.47648395
S        7.89622407      -3.91618456       5.76914128
C        8.04985991      -5.17295443       7.06031865
C        6.79350257      -6.00532210       6.98944973
O        6.57199473      -6.94571613       7.74540779
H        2.91951014      -0.13526430       2.59935180
H        4.34072810      -1.55479896       4.01636634
H        2.29226951      -5.05815181       2.53602940
H        0.86575975      -3.63262882       1.14682728
H        2.81106956      -5.70478017       4.72157279
H        4.14321018      -8.81396076       6.51922786
H        4.58831712     -10.94085193       5.37111977
H        6.40929054      -8.81288875       2.09704927
H        5.96118735      -6.67853876       3.22249979
H        8.12084450      -4.69769953       8.04164961
H        8.92166232      -5.80387759       6.87178813
C        5.78639533     -11.26097400       2.99440784
C        6.00762911     -12.30737180       2.43714376
Br       6.36534543     -13.99930853       1.53609485
C       -0.00445707       0.01189536      -1.78238275
H       -0.66409135       0.67374010      -2.43557963
H        0.65740317      -0.63156657      -2.45157240
C       -0.90989263      -0.90692880      -0.91072765
C        0.90977584       0.90977584      -0.90977584
C       -0.00465871       1.77757030       0.00794375
H       -0.66225468       2.44313916      -0.64384735
H        0.64322798       2.43503045       0.67728295
C       -1.78241447       0.00034974      -0.00472694
H       -2.45427497      -0.65498947       0.64260836
H       -2.43311707       0.67328779      -0.65473579
C       -0.91132561       0.90220522       0.91563759
C       -0.01476271      -0.02253852       1.78660255
H       -0.67934791      -0.69751639       2.42135241
H        0.63392994       0.61504881       2.47327442
C        0.01484550      -1.77751727      -0.01636693
H        0.67870853      -2.42144646      -0.68295456
H       -0.62264859      -2.45592969       0.64226336
C        1.78714474       0.01002794       0.00389507
H        2.44202412       0.67113390       0.66197326
H        2.45385902      -0.65136977      -0.64189061
C        0.91606151      -0.90478549       0.90901405
