162
Properties=species:S:1:pos:R:3 pbc="F F F"
C        1.79143865       1.79143865      -1.79143865
C        2.05672670       3.10407177      -1.41358709
C        2.86492541       3.90823157      -2.22383537
C        3.42245136       3.41232953      -3.41459516
C        3.12337841       2.08937141      -3.78357219
C        2.31869580       1.28008530      -2.97391843
C        4.26104749       4.30153454      -4.26070358
C        5.29370722       3.80482817      -4.96390132
C        6.13078784       4.66811703      -5.86060327
H        7.18722613       4.48774335      -5.62237479
C        5.87895680       4.33074617      -7.32859812
C        6.93743259       3.89086999      -8.14038098
C        6.72277171       3.58151319      -9.48609969
C        5.44841992       3.71265290     -10.03250437
Br       5.15948566       3.29444536     -11.85296350
C        4.38599262       4.15226669      -9.24751854
C        4.59988695       4.46094508      -7.90228692
N        5.86725474       6.06207332      -5.58432871
C        4.76646248       6.43126929      -4.88214913
N        3.95461889       5.64299647      -4.26777332
S        4.56582161       8.15384845      -4.86187986
C        6.13505679       8.43139761      -5.71667859
C        6.68868678       7.06450221      -6.03508541
O        7.75985070       6.89485333      -6.60841461
H        1.63936756       3.51598732      -0.49877136
H        3.05620757       4.93613666      -1.91954918
H        3.49720070       1.67324838      -4.71600164
H        2.10457434       0.25978433      -3.28085718
H        5.55961289       2.75350105      -4.92430859
H        7.94354247       3.79803132      -7.73482500
H        7.55612330       3.24604668     -10.09811885
H        3.39020989       4.25883703      -9.67018165
H        3.75537083       4.80195648      -7.30489859
H        6.82955458       8.96626709      -5.06437197
H        5.96798727       8.98674274      -6.64259803
C       -1.79143865      -1.79143865      -1.79143865
C       -2.02317796      -1.43488376      -3.11632384
C       -2.83115022      -2.24527579      -3.92056634
C       -3.41114708      -3.42177109      -3.41645788
C       -3.17736146      -3.74930385      -2.06965669
C       -2.36638223      -2.94364718      -1.26267011
C       -4.28001156      -4.24866523      -4.29460882
C       -4.31332357      -5.58624686      -4.16286628
C       -5.21213372      -6.44376302      -5.00361139
H       -4.61068733      -7.25795634      -5.42870058
C       -6.34085902      -7.03538353      -4.16205853
C       -6.48313017      -8.42877123      -4.05678217
C       -7.51291000      -8.98452152      -3.29295307
C       -8.41138426      -8.15162066      -2.63057226
Br      -9.80414406      -8.90454385      -1.59820661
C       -8.29232536      -6.76778651      -2.72566599
C       -7.26285686      -6.21183907      -3.48842302
N       -5.72607160      -5.67395148      -6.11363369
C       -5.65354225      -4.31903270      -6.10730594
N       -5.01608734      -3.59395532      -5.25534602
S       -6.51628955      -3.62372680      -7.44153356
C       -6.88104059      -5.24312960      -8.15896280
C       -6.32723544      -6.26453398      -7.19650498
O       -6.39709582      -7.47348862      -7.39253420
H       -1.58898452      -0.53075441      -3.53438731
H       -3.01065196      -1.94846778      -4.95277366
H       -3.63724934      -4.62709905      -1.62210233
H       -2.19958041      -3.22054752      -0.22508792
H       -3.70053645      -6.10444650      -3.43243957
H       -5.80021284      -9.09540627      -4.58077968
H       -7.60768057     -10.06539040      -3.22721785
H       -8.99279122      -6.11367448      -2.21276287
H       -7.18618238      -5.12702643      -3.54901709
H       -6.38668085      -5.34550731      -9.12800548
H       -7.96064023      -5.37766600      -8.25902181
C       -1.79143865       1.79143865       1.79143865
C       -2.94333478       1.26410440       2.36694638
C       -3.74803000       2.07494337       3.17401897
C       -3.41112367       3.41650502       3.42174737
C       -2.25301154       3.93031660       2.81299387
C       -1.44290284       3.12157768       2.00821900
C       -4.30012859       4.25411448       4.26904254
C       -3.78938044       5.21753178       5.05552449
C       -4.66349382       6.10798998       5.88802433
H       -4.27014227       6.11419699       6.91300500
C       -4.66618650       7.53307197       5.33904262
C       -4.22747315       8.59728187       6.14392854
C       -4.22721724       9.90685177       5.65631558
C       -4.66891758      10.16392896       4.36073065
Br      -4.66860856      11.93572569       3.70256027
C       -5.11327597       9.12489810       3.54760378
C       -5.11309637       7.81575949       4.03426309
N       -6.00015442       5.56192174       5.95158062
C       -6.39891476       4.60691663       5.07404950
N       -5.64858356       3.98216980       4.23463533
S       -8.09328003       4.26714811       5.22112177
C       -8.27344112       5.35614563       6.65354624
C       -6.92391484       5.99542581       6.86893375
O       -6.69766880       6.78749916       7.77795068
H       -3.23028939       0.23054092       2.19329593
H       -4.65110148       1.65064904       3.61014288
H       -1.97254004       4.97306041       2.94085028
H       -0.55142764       3.54271871       1.55106950
H       -2.72169729       5.40278297       5.11294226
H       -3.89415679       8.41755402       7.16468798
H       -3.88699190      10.71673675       6.29656018
H       -5.46154091       9.32095392       2.53673374
H       -5.46337232       7.01692844       3.38192514
H       -8.54949710       4.77438856       7.53630798
H       -9.01922390       6.12815758       6.44994656
C        1.79143865      -1.79143865       1.79143865
C        1.20847992      -2.74091556       2.62499008
C        2.01959208      -3.54660490       3.43079536
C        3.41896019      -3.42005811       3.41035775
C        3.98179251      -2.44033399       2.57419551
C        3.17436075      -1.63498208       1.76335670
C        4.24862308      -4.28014518       4.29451735
C        5.46614126      -4.69407819       3.90221726
C        6.34488957      -5.52557892       4.78903965
H        6.69671081      -6.38992848       4.21070497
C        7.54730535      -4.71798222       5.27301352
C        8.85009442      -5.14746599       4.97112315
C        9.95997894      -4.42054869       5.40985696
C        9.77667576      -3.25969091       6.15721052
Br      11.27870077      -2.27767406       6.75051969
C        8.49437087      -2.81876743       6.47263955
C        7.38473473      -3.54458366       6.03380055
N        5.57382769      -6.04348056       5.89634852
C        4.36342064      -5.51282515       6.20363510
N        3.70853984      -4.65283548       5.50401337
S        3.73599261      -6.16038836       7.68516894
C        5.09904042      -7.33782713       7.84626544
C        6.03308634      -7.06096272       6.69422533
O        7.06273382      -7.69925645       6.50112837
H        0.12926929      -2.86175873       2.66309821
H        1.54838810      -4.27897069       4.08453461
H        5.05647033      -2.27607139       2.55390900
H        3.63477315      -0.88641667       1.12402603
H        5.87320974      -4.43359521       2.93061757
H        9.01306620      -6.06124446       4.40208813
H       10.95990978      -4.77190624       5.16847281
H        8.34633740      -1.91488058       7.05801058
H        6.39005690      -3.18216694       6.29000205
H        4.72265333      -8.36123095       7.77630936
H        5.62328658      -7.18198238       8.79205908
C       -0.00445707       0.01189536      -1.78238275
H       -0.66409135       0.67374010      -2.43557963
H        0.65740317      -0.63156657      -2.45157240
C       -0.90989263      -0.90692880      -0.91072765
C        0.90977584       0.90977584      -0.90977584
C       -0.00465871       1.77757030       0.00794375
H       -0.66225468       2.44313916      -0.64384735
H        0.64322798       2.43503045       0.67728295
C       -1.78241447       0.00034974      -0.00472694
H       -2.45427497      -0.65498947       0.64260836
H       -2.43311707       0.67328779      -0.65473579
C       -0.91132561       0.90220522       0.91563759
C       -0.01476271      -0.02253852       1.78660255
H       -0.67934791      -0.69751639       2.42135241
H        0.63392994       0.61504881       2.47327442
C        0.01484550      -1.77751727      -0.01636693
H        0.67870853      -2.42144646      -0.68295456
H       -0.62264859      -2.45592969       0.64226336
C        1.78714474       0.01002794       0.00389507
H        2.44202412       0.67113390       0.66197326
H        2.45385902      -0.65136977      -0.64189061
C        0.91606151      -0.90478549       0.90901405
