181
Properties=species:S:1:pos:R:3 pbc="F F F"
C        0.00000000       0.00000000       0.00000000
C        0.88178943       0.88178943      -0.88178943
C        2.03035086       1.46149761      -0.34807783
C        2.83312815       2.27071453      -1.15461918
C        2.48224309       2.50732879      -2.49038628
C        1.32344557       1.92699812      -3.01473360
C        0.52660163       1.10630941      -2.21135520
C        3.31549560       3.38830735      -3.31258077
C        4.50065728       3.08840336      -3.88290548
C        5.33637275       4.18960718      -4.50122674
C        6.68231164       4.24499499      -3.78417136
C        7.41600669       2.90373762      -3.85923813
C        6.50666940       1.69790125      -3.86482948
C        5.15251100       1.77870675      -3.90439634
N        4.39141680       0.63205137      -4.06444052
C        4.92089969      -0.57095796      -4.35783470
N        4.37146482      -1.68705656      -4.76350741
C        5.45678180      -2.50228302      -4.96510716
N        6.65297800      -1.95682852      -4.71533728
N        6.27602865      -0.73292068      -4.28701611
C        7.19737465       0.32818164      -3.87658960
H        7.97400204       0.34022624      -4.65307405
C        7.80490371      -0.00956427      -2.51611670
C        7.00528599      -0.08735017      -1.35939171
C        7.56981984      -0.39292810      -0.12038067
C        8.93936578      -0.62303508      -0.02458023
Br       9.70504506      -1.03603675       1.65345769
C        9.74852214      -0.55304323      -1.15660727
C        9.18416841      -0.24879389      -2.39835095
H        2.30756287       1.29441556       0.68932348
H        3.72824181       2.72384258      -0.73261213
H        1.03517712       2.10516529      -4.04738472
H       -0.36799129       0.65211536      -2.62967664
H        2.93949280       4.40923272      -3.35758716
H        5.47655489       3.99612669      -5.57278126
H        4.84488508       5.16608968      -4.41845119
H        6.52350824       4.51032476      -2.73023459
H        7.30905706       5.03482659      -4.21394283
H        8.12601245       2.84442882      -3.02605974
H        8.00766238       2.88298342      -4.78334680
H        3.39816039       0.76707318      -4.21811523
H        5.36935872      -3.52334215      -5.31521448
H        5.93163973       0.08302600      -1.41559534
H        6.93216604      -0.45378468       0.75835185
H       10.81662664      -0.73974304      -1.08500877
H        9.82954993      -0.21015996      -3.27496260
C       -0.88178943      -0.88178943      -0.88178943
C       -1.83098187      -0.29417841      -1.71476603
C       -2.63909097      -1.10216122      -2.51720968
C       -2.50432530      -2.49635621      -2.47927666
C       -1.55381191      -3.07701315      -1.63435222
C       -0.73573544      -2.26789454      -0.84063625
C       -3.38493263      -3.33135308      -3.30009801
C       -3.28955105      -3.55548282      -4.62693225
C       -4.42005893      -4.25350124      -5.35364651
C       -4.96080992      -3.31876325      -6.43190482
C       -3.86497990      -2.89921778      -7.41478475
C       -2.49115667      -2.77923532      -6.79900814
C       -2.21342415      -3.10981400      -5.51237594
N       -0.90237765      -3.12117854      -5.06435251
C        0.15886643      -2.98451956      -5.88212329
N        1.43633922      -3.19336717      -5.69088773
C        1.97033067      -2.95718676      -6.93274985
N        1.09849059      -2.61972718      -7.89025017
N       -0.04866132      -2.60344690      -7.17801587
C       -1.37016255      -2.30120239      -7.73078095
H       -1.42383267      -2.88223528      -8.66123437
C       -1.47987926      -0.80614588      -8.02543101
C       -1.43468574       0.14662047      -6.98926226
C       -1.53938631       1.50994747      -7.26783357
C       -1.69119001       1.93496462      -8.58468553
Br      -1.83408094       3.78137341      -8.96284309
C       -1.73642213       1.00946455      -9.62512860
C       -1.62996139      -0.35607053      -9.34769355
H       -1.95262064       0.78528214      -1.74531644
H       -3.38131884      -0.63882148      -3.16455620
H       -1.44078461      -4.15704073      -1.58990180
H        0.00662562      -2.72737187      -0.19305446
H       -4.24513605      -3.71056790      -2.75060872
H       -4.05730434      -5.18908677      -5.79907173
H       -5.23442910      -4.52376444      -4.67123241
H       -5.38319915      -2.42195194      -5.95891650
H       -5.78140740      -3.80094264      -6.97547645
H       -4.15807149      -1.95332661      -7.88510291
H       -3.81064163      -3.64868194      -8.21466903
H       -0.74521071      -3.50089009      -4.13724799
H        3.02864322      -3.04481405      -7.14506023
H       -1.31001354      -0.16613836      -5.95410916
H       -1.49566338       2.22811074      -6.45247686
H       -1.84734009       1.33983851     -10.65439078
H       -1.65507300      -1.06499217     -10.17428740
C       -0.88178943       0.88178943       0.88178943
C       -0.30430732       1.90300256       1.63261642
C       -1.11150908       2.70555808       2.44139470
C       -2.49302927       2.48066944       2.50625946
C       -3.06218424       1.44837232       1.75462072
C       -2.25628058       0.65315547       0.93483018
C       -3.32053865       3.30803768       3.38780738
C       -3.73583196       4.57190653       3.16422763
C       -4.38540101       5.35791978       4.28388589
C       -3.55011868       6.60584079       4.55551852
C       -3.40641049       7.47132562       3.30124632
C       -3.36985003       6.69066666       2.00888344
C       -3.55058798       5.34750578       1.93752033
N       -3.65871787       4.72450017       0.70469066
C       -3.76605769       5.39818643      -0.45646769
N       -4.09973434       5.00829872      -1.66011738
C       -4.10397489       6.18379769      -2.36816664
N       -3.79896963       7.28640115      -1.67388402
N       -3.54547520       6.74686431      -0.46221542
C       -3.16463597       7.50952525       0.72798467
H       -3.85788804       8.36111924       0.74829505
C       -1.72249832       7.99551646       0.59344136
C       -0.64820737       7.08623378       0.54288638
C        0.66606092       7.53976169       0.42357165
C        0.92018783       8.90666425       0.35443451
Br       2.70016536       9.52190841       0.19380757
C       -0.12788780       9.82345831       0.40074007
C       -1.44469694       9.37053636       0.51849217
H        0.76727271       2.08067494       1.59925271
H       -0.65560167       3.50063277       3.02846208
H       -4.13135640       1.25815860       1.79821214
H       -2.70837504      -0.14170078       0.34712645
H       -3.51307351       2.84087086       4.35236831
H       -5.41058056       5.63221494       4.00266734
H       -4.45802040       4.76696236       5.20444319
H       -2.55201455       6.30799703       4.90405601
H       -3.99976986       7.19514951       5.36290712
H       -2.50613788       8.08878368       3.40157945
H       -4.26026308       8.15923143       3.25449810
H       -3.92284080       3.74545128       0.71505671
H       -4.34772280       6.23556609      -3.42205785
H       -0.82764370       6.01358459       0.58903277
H        1.47940038       6.81929746       0.38013242
H        0.06801081      10.89055049       0.33935269
H       -2.25276136      10.10059338       0.54099782
C        0.88178943      -0.88178943       0.88178943
C        0.46233090      -1.20836412       2.16923128
C        1.27171627      -2.01127998       2.97546562
C        2.50323057      -2.47887161       2.49785599
C        2.91885609      -2.13941961       1.20690158
C        2.10294225      -1.34650382       0.39482016
C        3.35705081      -3.28978171       3.36955119
C        3.20294595      -4.59488830       3.67413188
C        4.03940209      -5.21280319       4.77500139
C        3.10673270      -5.74589482       5.85885047
C        2.11534619      -6.76741893       5.29621731
C        1.69532462      -6.50454967       3.86952585
C        2.21836149      -5.51420276       3.10304984
N        1.89768171      -5.43261578       1.75761121
C        1.21565646      -6.39069782       1.10142215
N        1.02276129      -6.60075681      -0.17560243
C        0.32348641      -7.78146393      -0.18534441
N        0.07485777      -8.32438996       1.01223903
N        0.62082322      -7.38971621       1.81958465
C        0.65484803      -7.46611403       3.28118383
H        0.97268734      -8.49431025       3.50030473
C       -0.73982441      -7.20413894       3.84714161
C       -1.36681706      -5.95270407       3.69144051
C       -2.63946692      -5.72165466       4.21508467
C       -3.29814346      -6.73862831       4.90042607
Br      -5.02159302      -6.42623845       5.61090519
C       -2.69697650      -7.98476770       5.06429499
C       -1.42319025      -8.21802509       4.53889063
H       -0.48564529      -0.84315617       2.55514407
H        0.94119814      -2.26170966       3.98178871
H        3.87365756      -2.49006666       0.82400292
H        2.42996182      -1.09459369      -0.61075481
H        4.12609540      -2.70656359       3.87365368
H        4.65859621      -6.02155019       4.36531644
H        4.72661356      -4.48334026       5.21947213
H        2.54961827      -4.91048940       6.30395992
H        3.68767729      -6.20079469       6.66935451
H        1.23849968      -6.80485909       5.95314224
H        2.58204200      -7.76008622       5.33186438
H        2.41766690      -4.75605806       1.20962383
H       -0.00497942      -8.26381816      -1.09760768
H       -0.87024123      -5.14741322       3.15308907
H       -3.10689289      -4.74952749       4.07739490
H       -3.21274743      -8.78215451       5.59248529
H       -0.97318605      -9.20182953       4.66570909
