122
Properties=species:S:1:pos:R:3 pbc="F F F"
C        1.82927839       1.82927839      -1.82927839
C        2.01215271       3.19700611      -1.18123667
H        2.34069978       3.08800897      -0.14154958
C        0.74338208       4.07711662      -1.24925437
N        0.89903535       4.97378428      -2.36877005
C        2.13936013       5.09768210      -2.89212210
N        2.12870814       5.87814779      -3.93103699
N        0.80925192       6.28534257      -4.08334685
C        0.06611302       5.74184742      -3.12284515
C       -1.37783686       5.91227493      -2.96198594
C       -2.00941215       5.88781257      -1.71042635
C       -3.39492389       6.05719363      -1.60507083
C       -4.15794007       6.26550388      -2.75142304
Br      -6.02743343       6.49792192      -2.60574145
C       -3.54873714       6.31325756      -4.00127897
C       -2.16494225       6.14096719      -4.10234023
S        3.31508767       4.12153605      -2.12287044
H        1.33996819       1.87622831      -2.80671814
H        2.77307481       1.28234348      -1.91739653
H        0.66464709       4.70070881      -0.35169362
H       -0.17907955       3.50476653      -1.37597780
H       -1.44026784       5.76751705      -0.79390728
H       -3.86549988       6.03725990      -0.62514347
H       -4.13322961       6.48864543      -4.90072914
H       -1.69698325       6.18933513      -5.08561228
C       -1.82927839      -1.82927839      -1.82927839
C       -1.12971465      -3.15535948      -2.10532137
H       -0.78950333      -3.61176737      -1.16898762
C        0.05090184      -3.02616548      -3.09448943
N       -0.43375496      -3.40965967      -4.39817504
C       -1.61494430      -4.06530501      -4.44891502
N       -1.96773357      -4.29115697      -5.67900239
N       -0.95522149      -3.75679491      -6.46592493
C       -0.01746218      -3.23168307      -5.68166034
C        1.19470919      -2.55230674      -6.13882646
C        2.39376944      -2.57028101      -5.41231519
C        3.52971281      -1.90661026      -5.89044311
C        3.47792805      -1.23015227      -7.10676264
Br       5.01403764      -0.33865006      -7.75161753
C        2.30396157      -1.21656247      -7.85319848
C        1.17087391      -1.87848674      -7.37075235
S       -2.34236883      -4.29896249      -2.91816285
H       -2.03480903      -1.25227347      -2.73583214
H       -2.75448490      -1.95898447      -1.25934546
H        0.84645425      -3.73221374      -2.83129004
H        0.46534073      -2.01637937      -3.15062614
H        2.48039849      -3.12080785      -4.48074713
H        4.45070365      -1.93431650      -5.31329065
H        2.25683217      -0.70299660      -8.80998053
H        0.25915606      -1.86901549      -7.96810473
C       -1.82927839       1.82927839       1.82927839
C       -1.28736888       3.25406855       1.84895806
H       -1.12547150       3.61701882       0.82776801
C        0.00888092       3.40067477       2.67795922
N       -0.36488983       3.89638945       3.98031038
C       -1.60932658       4.40798157       4.11185618
N       -1.84083284       4.75434054       5.34271955
N       -0.67925829       4.45511970       6.04356336
C        0.22101356       3.94400740       5.20781175
C        1.55942599       3.48131835       5.57453166
C        2.65027875       3.54326070       4.69584481
C        3.91407319       3.08980209       5.09161166
C        4.09884870       2.58242580       6.37540976
Br       5.80684055       1.97486101       6.90820950
C        3.03445425       2.53046531       7.26978833
C        1.77319215       2.98196192       6.86959540
S       -2.53816348       4.34482014       2.67651054
H       -1.84594347       1.35966367       2.81730750
H       -2.82458020       1.77009468       1.37813995
H        0.66490767       4.15412875       2.22782845
H        0.55955723       2.46411779       2.79710423
H        2.55058454       3.96933662       3.70240440
H        4.74780372       3.14847172       4.39623549
H        3.17100790       2.14884128       8.27831159
H        0.94851972       2.94505809       7.58142578
C        1.82927839      -1.82927839       1.82927839
C        2.33690048      -3.02384628       1.02964873
H        2.79005323      -2.69116825       0.08903685
C        1.24196658      -4.07820859       0.74957790
N        1.38415324      -5.12131514       1.73612129
C        2.53744176      -5.15082592       2.44089665
N        2.50941514      -6.09115767       3.33732011
N        1.27159077      -6.70664435       3.19970622
C        0.59446330      -6.12068959       2.21565270
C       -0.75959012      -6.46990034       1.78611380
C       -1.19641286      -6.32336120       0.46187841
C       -2.50181380      -6.67255206       0.09660231
C       -3.37677567      -7.18372757       1.05203496
Br      -5.13699543      -7.65806126       0.55516412
C       -2.95750167      -7.35593217       2.36736889
C       -1.65364608      -7.00342013       2.72859112
S        3.62760295      -3.89607322       2.03581800
H        1.21793150      -2.11428546       2.69069768
H        2.64201548      -1.17376960       2.15702974
H        1.40336033      -4.54313147      -0.22944227
H        0.22646135      -3.67700527       0.79819817
H       -0.52877319      -5.96570196      -0.31577228
H       -2.82065493      -6.55356393      -0.93600551
H       -3.62814303      -7.76657600       3.11771200
H       -1.33296046      -7.15106724       3.75985737
C       -0.00445707       0.01189536      -1.78238275
H       -0.66409135       0.67374010      -2.43557963
H        0.65740317      -0.63156657      -2.45157240
C       -0.90989263      -0.90692880      -0.91072765
C        0.90977584       0.90977584      -0.90977584
C       -0.00465871       1.77757030       0.00794375
H       -0.66225468       2.44313916      -0.64384735
H        0.64322798       2.43503045       0.67728295
C       -1.78241447       0.00034974      -0.00472694
H       -2.45427497      -0.65498947       0.64260836
H       -2.43311707       0.67328779      -0.65473579
C       -0.91132561       0.90220522       0.91563759
C       -0.01476271      -0.02253852       1.78660255
H       -0.67934791      -0.69751639       2.42135241
H        0.63392994       0.61504881       2.47327442
C        0.01484550      -1.77751727      -0.01636693
H        0.67870853      -2.42144646      -0.68295456
H       -0.62264859      -2.45592969       0.64226336
C        1.78714474       0.01002794       0.00389507
H        2.44202412       0.67113390       0.66197326
H        2.45385902      -0.65136977      -0.64189061
C        0.91606151      -0.90478549       0.90901405
