138
Properties=species:S:1:pos:R:3 pbc="F F F"
O        5.50318360       3.10755291      -5.36509066
C        5.38761669       1.90566181      -5.16605681
N        4.48954365       1.33379516      -4.27385449
C        3.55602240       1.99904537      -3.44756045
C        3.40132704       3.38688220      -3.39924460
C        2.44989289       3.97254947      -2.55636210
C        1.64229771       3.17504480      -1.75050480
C        1.79235568       1.79235568      -1.79235568
C        2.74029172       1.20280973      -2.63256176
N        6.13428244       0.92389959      -5.80481315
C        7.12365602       1.10452128      -6.79886162
C        7.49983666       2.34830443      -7.31272913
C        8.48453669       2.44533223      -8.30204935
C        9.10429591       1.29790791      -8.78950002
C        8.73443224       0.05673717      -8.28165641
C        7.75242402      -0.04623417      -7.29324757
H        4.48855702       0.32804531      -4.21437445
H        4.00599532       4.05284372      -4.00745569
H        2.34479792       5.05465065      -2.53493746
H        0.90620765       3.63910537      -1.09978758
H        2.83558797       0.12092439      -2.64566639
H        5.96399333      -0.02886293      -5.52606696
H        7.04571519       3.27220937      -6.96801430
H        8.76246868       3.42285754      -8.68912277
H        9.86664452       1.38385197      -9.55864181
H        7.48255843      -1.02795301      -6.91502742
C        9.36972488      -1.13479812      -8.78190325
C        9.90178247      -2.13270893      -9.20085998
Br      10.76207458      -3.74624631      -9.87827758
O       -4.47898436      -6.08442291      -3.41241990
C       -3.88047157      -6.22457945      -2.35428428
N       -3.11037669      -5.24249344      -1.74432317
C       -2.87375520      -3.92674143      -2.20213159
C       -3.39404168      -3.40436137      -3.38905079
C       -3.11747436      -2.08749543      -3.77383466
C       -2.31521985      -1.27788719      -2.97474027
C       -1.79235568      -1.79235568      -1.79235568
C       -2.06601131      -3.10613333      -1.40351857
N       -3.88083662      -7.38748983      -1.59466873
C       -4.56999426      -8.59239084      -1.86465382
C       -5.39495271      -8.79106542      -2.97485209
C       -6.04968721     -10.01213239      -3.17009867
C       -5.88689451     -11.04919764      -2.25561169
C       -5.06659862     -10.85770891      -1.14851829
C       -4.40972510      -9.64094618      -0.94876614
H       -2.67931489      -5.48507078      -0.86659112
H       -4.02492311      -3.99416202      -4.04720960
H       -3.53346821      -1.70009123      -4.70082659
H       -2.10660572      -0.25670450      -3.28179038
H       -1.64530070      -3.48164828      -0.47522977
H       -3.31976271      -7.38320597      -0.75822869
H       -5.55659070      -8.01388040      -3.71546775
H       -6.68782044     -10.14622342      -4.04040513
H       -6.40071602     -11.99288903      -2.41553326
H       -3.77574307      -9.51845820      -0.07543156
C       -4.89446205     -11.92504255      -0.19732541
C       -4.75029768     -12.81893447       0.59929864
Br      -4.51719608     -14.26428210       1.88737234
O       -5.27867948       5.58175400       3.11539369
C       -5.04048789       5.50106218       1.91778524
N       -4.16006826       4.59182299       1.34530204
C       -3.39142340       3.60641085       2.00479397
C       -3.39872515       3.40175562       3.38697307
C       -2.61126121       2.40062954       3.96691370
C       -1.80576642       1.59274522       3.16933568
C       -1.79235568       1.79235568       1.79235568
C       -2.57712840       2.79002662       1.20850819
N       -5.61690972       6.30411669       0.94196877
C       -6.58172150       7.32186915       1.12344828
C       -7.12677304       7.67276355       2.36133363
C       -8.08400421       8.68859328       2.45932078
C       -8.50775042       9.36521123       1.31874219
C       -7.96858926       9.02075242       0.08348414
C       -7.01195960       8.00785136      -0.02037354
H       -4.06434681       4.62376917       0.34286080
H       -4.00914709       4.00441399       4.05273364
H       -2.63263989       2.25714833       5.04459781
H       -1.19831859       0.81787858       3.62890343
H       -2.54778980       2.92341324       0.13097571
H       -5.31001943       6.15720091      -0.00602297
H       -6.83172623       7.17452972       3.27968291
H       -8.49622532       8.94606761       3.43215606
H       -9.25243629      10.15139890       1.40530312
H       -6.60814766       7.75889950      -0.99741432
C       -8.40297937       9.71488530      -1.10103465
C       -8.76678108      10.29622158      -2.09306915
Br      -9.35501768      11.23619319      -3.69710502
O        4.39696375      -3.46362814       6.11523527
C        3.78608578      -2.41321253       6.26003700
N        3.04256194      -1.78666221       5.26796914
C        2.84273317      -2.22149969       3.93839536
C        3.39503556      -3.38843028       3.40398800
C        3.14733848      -3.75518948       2.07627649
C        2.34405246      -2.95673910       1.26705576
C        1.79235568      -1.79235568       1.79235568
C        2.03612332      -1.42217865       3.11736124
N        3.73713046      -1.68438935       7.44147537
C        4.33750960      -2.00980187       8.67972746
C        5.08775631      -3.16664520       8.90646871
C        5.64565748      -3.42234811      10.16391268
C        5.45861503      -2.52300108      11.21008774
C        4.71299873      -1.36928268      10.99054441
C        4.15419047      -1.10830505       9.73694188
H        2.57778448      -0.92997999       5.52321231
H        4.02800402      -4.04528608       3.99300462
H        3.58583381      -4.66813298       1.68041925
H        2.15724506      -3.25017453       0.23768102
H        1.59218055      -0.50839448       3.50160373
H        3.22471595      -0.81756960       7.41891182
H        5.26087937      -3.90009035       8.12496913
H        6.22578893      -4.32886704      10.31979302
H        5.89475221      -2.73142360      12.18296250
H        3.57601170      -0.20013062       9.59349052
C        4.51373562      -0.43502581      12.06806858
C        4.34685276       0.34741431      12.97049506
Br       4.07701730       1.61255382      14.42964236
C       -0.00445707       0.01189536      -1.78238275
H       -0.66409135       0.67374010      -2.43557963
H        0.65740317      -0.63156657      -2.45157240
C       -0.90989263      -0.90692880      -0.91072765
C        0.90977584       0.90977584      -0.90977584
C       -0.00465871       1.77757030       0.00794375
H       -0.66225468       2.44313916      -0.64384735
H        0.64322798       2.43503045       0.67728295
C       -1.78241447       0.00034974      -0.00472694
H       -2.45427497      -0.65498947       0.64260836
H       -2.43311707       0.67328779      -0.65473579
C       -0.91132561       0.90220522       0.91563759
C       -0.01476271      -0.02253852       1.78660255
H       -0.67934791      -0.69751639       2.42135241
H        0.63392994       0.61504881       2.47327442
C        0.01484550      -1.77751727      -0.01636693
H        0.67870853      -2.42144646      -0.68295456
H       -0.62264859      -2.45592969       0.64226336
C        1.78714474       0.01002794       0.00389507
H        2.44202412       0.67113390       0.66197326
H        2.45385902      -0.65136977      -0.64189061
C        0.91606151      -0.90478549       0.90901405
