117
Properties=species:S:1:pos:R:3 pbc="F F F"
C        0.00000000       0.00000000       0.00000000
O        5.07651713       2.37321094      -3.80036445
C        5.17080298       1.26728328      -3.28412514
N        4.20448407       0.67995809      -2.48069447
C        2.95322485       1.21613365      -2.10284778
C        2.49309829       2.47790067      -2.48806072
C        1.23801245       2.93733458      -2.07525100
C        0.42799117       2.13852892      -1.27046661
C        0.88220694       0.88220694      -0.88220694
C        2.13479696       0.41906391      -1.29154740
N        6.26428059       0.42832588      -3.42656250
C        7.44441838       0.66404906      -4.16805064
C        7.70024283       1.81936559      -4.90757079
C        8.90558769       1.95665610      -5.60846376
C        9.85746930       0.93823101      -5.57170812
C        9.61972892      -0.22078085      -4.84181819
C        8.41844925      -0.34443378      -4.14967556
F        8.19073412      -1.46468838      -3.44532109
H        4.40990047      -0.24303282      -2.13110607
H        3.08653390       3.13772102      -3.11345152
H        0.89642402       3.92199607      -2.38608211
H       -0.54550606       2.50421755      -0.95654882
H        2.46438837      -0.56602607      -0.97407910
H        6.24175562      -0.46088769      -2.94677912
H        6.98641693       2.63553136      -4.96304260
H        9.08602653       2.86556892      -6.17832985
H       10.34628768      -1.02487831      -4.80033136
C       11.09418950       1.08860629      -6.29386492
C       12.12994266       1.21454559      -6.89867124
Br      13.80466791       1.41817878      -7.87659191
O       -4.64263399      -2.19408477      -4.41337375
C       -4.55312138      -0.99740479      -4.17168523
N       -3.65085396      -0.43109929      -3.28318337
C       -2.68052333      -1.09327891      -2.49840404
C       -2.49022932      -2.47743947      -2.49139089
C       -1.50370852      -3.05888500      -1.68800451
C       -0.69549896      -2.26080777      -0.88067997
C       -0.88220694      -0.88220694      -0.88220694
C       -1.86611776      -0.29686955      -1.68242096
N       -5.34424346      -0.02049106      -4.75443445
C       -6.37135757      -0.19546993      -5.70969058
C       -6.75967102      -1.42547789      -6.24203031
C       -7.79364332      -1.49193214      -7.18513209
C       -8.44105677      -0.32800423      -7.59834744
C       -8.06696421       0.90667535      -7.08047741
C       -7.03856004       0.95881526      -6.14394626
F       -6.67871274       2.15233649      -5.64499058
H       -3.67964817       0.57236256      -3.19068812
H       -3.09419567      -3.14181618      -3.10169459
H       -1.36968794      -4.13815347      -1.69666079
H        0.06856602      -2.72222958      -0.26159675
H       -1.99001846       0.78208674      -1.66450968
H       -5.19229190       0.93844277      -4.47379793
H       -6.28195106      -2.35503799      -5.94800184
H       -8.08184487      -2.46074679      -7.58733364
H       -8.55699545       1.82381121      -7.38855648
C       -9.50376581      -0.40595398      -8.56694092
C      -10.39378463      -0.47123690      -9.37813796
Br     -11.83286979      -0.57679385     -10.68977496
O       -2.26245039       4.90515364       4.08248849
C       -1.08469532       4.88831153       3.74920454
N       -0.50463763       3.93323655       2.92726244
C       -1.12931652       2.81890550       2.32398426
C       -2.47837957       2.49383922       2.48684089
C       -3.02502266       1.37367930       1.85189606
C       -2.22664679       0.56432298       1.04601692
C       -0.88220694       0.88220694       0.88220694
C       -0.33159845       1.99947454       1.51433528
N       -0.14656242       5.82834950       4.14425705
C       -0.34729292       6.95434828       4.97487689
C       -1.56991686       7.31430755       5.54295480
C       -1.66331566       8.45174524       6.35564664
C       -0.53399769       9.23205864       6.60135210
C        0.69227175       8.89026051       6.04277750
C        0.77155504       7.75762745       5.23761863
F        1.95688644       7.42922856       4.69902471
H        0.47609144       4.04932321       2.72474195
H       -3.14123787       3.09197500       3.10449357
H       -4.07760027       1.13716747       1.98973446
H       -2.66132452      -0.30243758       0.55637337
H        0.72098590       2.22464186       1.36878544
H        0.80296857       5.71250427       3.81811136
H       -2.47301674       6.73498201       5.37699214
H       -2.62555079       8.71468184       6.78969267
H        1.58252332       9.48352570       6.22073834
C       -0.63897039      10.39853411       7.43915620
C       -0.72688503      11.37545732       8.14081713
Br      -0.86903557      12.95505952       9.27534352
O        2.31872186      -5.00640905       3.92496160
C        1.16311496      -5.03677538       3.52232106
N        0.57413425      -4.06832640       2.72267597
C        1.16351730      -2.88552631       2.22316267
C        2.47883380      -2.49429889       2.48592699
C        2.99191079      -1.30823262       1.95045462
C        2.19329773      -0.49845917       1.14522980
C        0.88220694      -0.88220694       0.88220694
C        0.36516396      -2.06544689       1.41479743
N        0.26270401      -6.05118412       3.80528084
C        0.48355663      -7.21218880       4.58077265
C        1.69126862      -7.53542756       5.20048304
C        1.80688342      -8.71288349       5.95094065
C        0.71480333      -9.56999731       6.08260779
C       -0.49598287      -9.26564175       5.47110737
C       -0.59767068      -8.09262339       4.72873833
F       -1.76799132      -7.80049106       4.13886709
H       -0.38454612      -4.22782316       2.45469668
H        3.14035006      -3.08991653       3.10743986
H        4.01858077      -1.02069420       2.16522723
H        2.60186653       0.41986653       0.73326031
H       -0.66176011      -2.34121268       1.19298883
H       -0.67189118      -5.97026914       3.42926910
H        2.56555538      -6.89638272       5.12305278
H        2.75689305      -8.94619932       6.42683293
H       -1.35730645      -9.91857084       5.56047634
C        0.84227745     -10.77725185       6.85713140
C        0.94903703     -11.78832753       7.50579493
Br       1.12165823     -13.42315138       8.55462899
