109
Properties=species:S:1:pos:R:3 pbc="F F F"
C        0.00000000       0.00000000       0.00000000
O        5.07651713       2.37321094      -3.80036445
C        5.17080298       1.26728328      -3.28412514
N        4.20448407       0.67995809      -2.48069447
C        2.95322485       1.21613365      -2.10284778
C        2.49309829       2.47790067      -2.48806072
C        1.23801245       2.93733458      -2.07525100
C        0.42799117       2.13852892      -1.27046661
C        0.88220694       0.88220694      -0.88220694
C        2.13479696       0.41906391      -1.29154740
N        6.26428059       0.42832588      -3.42656250
C        7.44441838       0.66404906      -4.16805064
C        7.70024283       1.81936559      -4.90757079
C        8.90558769       1.95665610      -5.60846376
C        9.85746930       0.93823101      -5.57170812
Br      11.48025746       1.13554907      -6.51930120
C        9.61972892      -0.22078085      -4.84181819
C        8.41844925      -0.34443378      -4.14967556
F        8.19073412      -1.46468838      -3.44532109
H        4.40990047      -0.24303282      -2.13110607
H        3.08653390       3.13772102      -3.11345152
H        0.89642402       3.92199607      -2.38608211
H       -0.54550606       2.50421755      -0.95654882
H        2.46438837      -0.56602607      -0.97407910
H        6.24175562      -0.46088769      -2.94677912
H        6.98641693       2.63553136      -4.96304260
H        9.08602653       2.86556892      -6.17832985
H       10.34628768      -1.02487831      -4.80033136
O       -4.63615922      -2.19343687      -4.42049642
C       -4.54385997      -0.99632244      -4.18202899
N       -3.64253239      -0.43005424      -3.29254999
C       -2.67642356      -1.09276120      -2.50302152
C       -2.49018863      -2.47744297      -2.49142807
C       -1.50770843      -3.05940933      -1.68348027
C       -0.69952585      -2.26133459      -0.87612626
C       -0.88220694      -0.88220694      -0.88220694
C       -1.86207507      -0.29634709      -1.68698612
N       -5.33043133      -0.01881597      -4.76992167
C       -6.35526906      -0.19359248      -5.72765655
C       -6.74561857      -1.42401337      -6.25754728
C       -7.77703324      -1.49021079      -7.20346352
C       -8.41984477      -0.32561518      -7.62194848
Br      -9.81089093      -0.42754934      -8.89666746
C       -8.04366033       0.90947645      -7.10658238
C       -7.01783637       0.96135667      -6.16721134
F       -6.65596211       2.15527656      -5.67068128
H       -3.66866862       0.57375261      -3.20305771
H       -3.09431275      -3.14183765      -3.10155604
H       -1.37681163      -4.13908364      -1.68860693
H        0.06138648      -2.72316887      -0.25347792
H       -1.98287990       0.78301262      -1.67257411
H       -5.17650034       0.94048634      -4.49163306
H       -6.27146890      -2.35409730      -5.95942469
H       -8.06688836      -2.45935216      -7.60368478
H       -8.53011654       1.82713105      -7.41875524
O       -2.26093195       4.90177135       4.08738921
C       -1.08259331       4.88336014       3.75625794
N       -0.50278153       3.92873475       2.93362034
C       -1.12840337       2.81668553       2.32711738
C       -2.47836663       2.49382348       2.48686957
C       -3.02590494       1.37585921       1.84883388
C       -2.22753548       0.56651684       1.04293438
C       -0.88220694       0.88220694       0.88220694
C       -0.33070338       1.99727676       1.51742813
N       -0.14345494       5.82092077       4.15479326
C       -0.34364017       6.94574895       4.98712897
C       -1.56664757       7.30692431       5.55360734
C       -1.65944698       8.44302529       6.36823528
C       -0.52914292       9.22078370       6.61748181
Br      -0.66608904      10.74961180       7.71940689
C        0.69752599       8.87774505       6.06054720
C        0.77620485       7.74646092       5.25343496
F        1.96192360       7.41686045       4.71642998
H        0.47853535       4.04337533       2.73313375
H       -3.14126095       3.09204327       3.10440222
H       -4.07917320       1.14104716       1.98428183
H       -2.66290897      -0.29852615       0.55087749
H        0.72256492       2.22075861       1.37424770
H        0.80646366       5.70391731       3.83019341
H       -2.47050989       6.72958522       5.38489578
H       -2.62199742       8.70694322       6.80098467
H        1.58854360       9.46902535       6.24125897
O        2.31858502      -5.00620573       3.92530176
C        1.16292333      -5.03647674       3.52281133
N        0.57396398      -4.06805443       2.72311821
C        1.16343349      -2.88539217       2.22338061
C        2.47883274      -2.49429799       2.48592895
C        2.99199205      -1.30836446       1.95024152
C        2.19337957      -0.49859184       1.14501529
C        0.88220694      -0.88220694       0.88220694
C        0.36508163      -2.06531402       1.41501262
N        0.26241983      -6.05073569       3.80601346
C        0.48322367      -7.21167015       4.58162426
C        1.69097316      -7.53498335       5.20122270
C        1.80653393      -8.71235891       5.95181471
C        0.71436206      -9.56931783       6.08372854
Br       0.88155803     -11.15333454       7.10021516
C       -0.49646300      -9.26488641       5.47234285
C       -0.59809632      -8.09194914       4.72983822
F       -1.76845463      -7.79974335       4.14007812
H       -0.38477048      -4.22746376       2.45528045
H        3.14035227      -3.08992069       3.10743347
H        4.01872559      -1.02092880       2.16484780
H        2.60201244       0.41963000       0.73287786
H       -0.66190540      -2.34097790       1.19336890
H       -0.67221270      -5.96975000       3.43010976
H        2.56533099      -6.89605898       5.12360091
H        2.75657426      -8.94573476       6.42761628
H       -1.35785790      -9.91769515       5.56190347
