142
Properties=species:S:1:pos:R:3 pbc="F F F"
O        5.64524475       2.53892840      -5.30518118
C        5.27519261       3.69766604      -5.16919926
N        4.30188430       4.11892538      -4.27439207
C        3.47972097       3.29893885      -3.47187339
C        3.34309568       1.92394607      -3.65822886
C        2.50853343       1.17542624      -2.82383994
C        1.79665748       1.79665748      -1.79665748
C        1.90186115       3.18047133      -1.59841619
C        1.16064648       3.89221103      -0.50139871
C        2.74678610       3.91883591      -2.44943912
N        5.76780301       4.77651563      -5.88955125
C        6.84475229       4.76307478      -6.80313526
C        7.75308655       3.70629965      -6.91420955
C        8.79888407       3.75855786      -7.84153566
C        8.95016906       4.87178953      -8.66407468
C        8.05657098       5.93250619      -8.54735696
Br       8.25648673       7.44975793      -9.65888626
C        7.01225233       5.88741295      -7.62063433
H        4.31562569       5.10044400      -4.04331355
H        3.86773356       1.39977322      -4.45158710
H        2.42594964       0.10361642      -2.98822952
H        1.32536703       4.97428672      -0.54230810
H        1.50506221       3.54433181       0.47779731
H        0.08250023       3.72723867      -0.59405115
H        2.83705334       4.99210288      -2.29661932
H        5.18109085       5.59680184      -5.90253219
H        7.68053282       2.82446453      -6.28379874
H        9.49298402       2.92483739      -7.91704179
H        9.76260560       4.90135558      -9.38500315
H        6.32712765       6.72723637      -7.55083377
O       -2.94002089      -6.31676849      -4.23256495
C       -3.93392735      -5.67074996      -4.53738059
N       -4.13890568      -4.33533605      -4.22096002
C       -3.32811302      -3.52856544      -3.39385476
C       -2.33690286      -4.03448308      -2.55388467
C       -1.57275876      -3.17376210      -1.76127875
C       -1.79665748      -1.79665748      -1.79665748
C       -2.79887968      -1.26298644      -2.61888255
C       -3.07163429       0.21319317      -2.69581510
C       -3.55967643      -2.14546814      -3.40991656
N       -5.01693879      -6.17032828      -5.24660282
C       -5.12281077      -7.44703547      -5.84111610
C       -4.03555488      -8.30433771      -6.03370316
C       -4.21136267      -9.55698647      -6.63062846
C       -5.47670298      -9.96293733      -7.04639297
C       -6.55992107      -9.10701196      -6.86950110
Br      -8.28175049      -9.64943917      -7.43394126
C       -6.38981273      -7.85338845      -6.27709843
H       -4.82420497      -3.85313618      -4.78204209
H       -2.13541290      -5.09936847      -2.48431252
H       -0.80213562      -3.59543607      -1.12022389
H       -3.92577754       0.43008547      -3.34626978
H       -2.20390888       0.73912298      -3.10681080
H       -3.31157253       0.61342326      -1.70564078
H       -4.33479094      -1.73655760      -4.05442701
H       -5.87314101      -5.64374801      -5.16353588
H       -3.02910364      -8.02314712      -5.73654533
H       -3.35455678     -10.21243597      -6.76787045
H       -5.60452104     -10.93987099      -7.50457229
H       -7.25164956      -7.20511944      -6.14842877
O       -2.98184178       6.34109308       4.16641947
C       -3.95663080       5.68204462       4.50338247
N       -4.14120500       4.33688716       4.21710960
C       -3.33080922       3.52979157       3.38993243
C       -2.36634163       4.03813049       2.52079848
C       -1.60083608       3.17688246       1.73008108
C       -1.79665748       1.79665748       1.79665748
C       -2.77192758       1.26000995       2.64881113
C       -3.01381388      -0.21937775       2.75982009
C       -3.53454908       2.14304423       3.43746781
N       -5.03534160       6.17443698       5.22409131
C       -5.15492753       7.46038075       5.79565406
C       -4.08134412       8.34230801       5.94994362
C       -4.27031501       9.60289083       6.52577176
C       -5.53513315       9.99232894       6.95857118
C       -6.60440248       9.11216771       6.81986393
Br      -8.32534918       9.63210269       7.40767905
C       -6.42102161       7.85058938       6.24868863
H       -4.80577175       3.85267468       4.80093682
H       -2.18739488       5.10514305       2.42655596
H       -0.85133310       3.60066557       1.06579690
H       -3.85068212      -0.43989549       3.43117522
H       -2.12800557      -0.72008676       3.16367790
H       -3.26497433      -0.64374983       1.78256555
H       -4.28872756       1.73200082       4.10504717
H       -5.88238832       5.62976746       5.16826911
H       -3.07548296       8.07490058       5.63841255
H       -3.42416666      10.27746572       6.63323081
H       -5.67336369      10.97548510       7.40011553
H       -7.27217466       7.18326436       6.14975876
O        5.78892624      -2.56570448       5.13472361
C        5.35184211      -3.70777562       5.08244018
N        4.30993511      -4.12089275       4.26437389
C        3.48874216      -3.29987257       3.46191849
C        3.43470516      -1.91157367       3.57899178
C        2.59565274      -1.16279571       2.74935116
C        1.79665748      -1.79665748       1.79665748
C        1.81824651      -3.19263930       1.66986286
C        0.98140987      -3.91878043       0.65406592
C        2.66908077      -3.93099344       2.51498693
N        5.82636353      -4.77301808       5.83448829
C        6.95132025      -4.77127706       6.68836503
C        7.91842133      -3.76188441       6.69329000
C        9.00963907      -3.82321429       7.56612423
C        9.14766489      -4.89855703       8.43981135
C        8.19473971      -5.91298825       8.42870616
Br       8.37607638      -7.37875231       9.61030223
C        7.10465517      -5.85885266       7.55679178
H        4.25955300      -5.11241321       4.08741703
H        4.02902343      -1.37638364       4.31368682
H        2.57843301      -0.08093352       2.85842905
H        1.09132246      -5.00467556       0.74596382
H        1.28897835      -3.64212572      -0.35950736
H       -0.07987433      -3.68993580       0.79372858
H        2.69452406      -5.01412756       2.41712393
H        5.19916790      -5.55786948       5.92338750
H        7.85740143      -2.91156600       6.01982865
H        9.74949792      -3.02626682       7.55909845
H        9.99599250      -4.93517483       9.11779699
H        6.37374134      -6.66208238       7.56937406
C       -0.00445707       0.01189536      -1.78238275
H       -0.66409135       0.67374010      -2.43557963
H        0.65740317      -0.63156657      -2.45157240
C       -0.90989263      -0.90692880      -0.91072765
C        0.90977584       0.90977584      -0.90977584
C       -0.00465871       1.77757030       0.00794375
H       -0.66225468       2.44313916      -0.64384735
H        0.64322798       2.43503045       0.67728295
C       -1.78241447       0.00034974      -0.00472694
H       -2.45427497      -0.65498947       0.64260836
H       -2.43311707       0.67328779      -0.65473579
C       -0.91132561       0.90220522       0.91563759
C       -0.01476271      -0.02253852       1.78660255
H       -0.67934791      -0.69751639       2.42135241
H        0.63392994       0.61504881       2.47327442
C        0.01484550      -1.77751727      -0.01636693
H        0.67870853      -2.42144646      -0.68295456
H       -0.62264859      -2.45592969       0.64226336
C        1.78714474       0.01002794       0.00389507
H        2.44202412       0.67113390       0.66197326
H        2.45385902      -0.65136977      -0.64189061
C        0.91606151      -0.90478549       0.90901405
