66
Properties=species:S:1:pos:R:3 pbc="F F F"
C        1.77855063       1.77855063      -1.77855063
N        1.55767509       3.05782381      -1.97206315
C        2.58113872       3.43363857      -2.79723206
Br       2.78277589       5.20119836      -3.41893454
N        3.43844161       2.45706010      -3.11613193
N        2.89548298       1.40398323      -2.47000855
C        3.53919068       0.10792289      -2.50739403
C        2.80211186      -0.83971223      -3.34214052
N        2.21598352      -1.60894904      -3.98293761
H        3.62237648      -0.24916243      -1.47570992
H        4.55706703       0.24785514      -2.88768985
C       -1.77855063      -1.77855063      -1.77855063
N       -1.37489838      -2.91406093      -2.29860275
C       -2.47281038      -3.35553652      -2.98366245
Br      -2.48078397      -4.97534573      -3.94677908
N       -3.54623135      -2.56060327      -2.90479902
N       -3.07410656      -1.54941524      -2.14595297
C       -3.93793942      -0.45231583      -1.76425235
C       -3.60140980       0.77729513      -2.48042548
N       -3.33141603       1.76579791      -3.02435397
H       -3.84632037      -0.32154404      -0.68105957
H       -4.97191919      -0.74961753      -1.97107529
C       -1.77855063       1.77855063       1.77855063
N       -3.01940728       1.48159874       2.08655604
C       -3.40343292       2.52132239       2.88725404
Br      -5.12549783       2.63286596       3.64454500
N       -2.46007395       3.44440993       3.10714976
N       -1.43635944       2.95959767       2.37351765
C       -0.15953215       3.64139262       2.35358283
C        0.07886763       4.30881412       1.07459365
N        0.29177682       4.82438259       0.05736633
H        0.61517419       2.89756258       2.56653558
H       -0.15135465       4.36596689       3.17529047
C        1.77855063      -1.77855063       1.77855063
N        2.95889680      -1.40998427       2.21868099
C        3.36718136      -2.48192295       2.96290504
Br       5.02488157      -2.51954777       3.85847944
N        2.49473398      -3.49468596       3.02221369
N        1.49522529      -3.03170074       2.24254873
C        0.28986229      -3.81081295       2.05383236
C        0.21668998      -4.37924339       0.70860678
N        0.13400758      -4.81809076      -0.36212625
H       -0.56259320      -3.15444718       2.25706999
H        0.27910964      -4.60372772       2.80977465
C       -0.00445707       0.01189536      -1.78238275
H       -0.66409135       0.67374010      -2.43557963
H        0.65740317      -0.63156657      -2.45157240
C       -0.90989263      -0.90692880      -0.91072765
C        0.90977584       0.90977584      -0.90977584
C       -0.00465871       1.77757030       0.00794375
H       -0.66225468       2.44313916      -0.64384735
H        0.64322798       2.43503045       0.67728295
C       -1.78241447       0.00034974      -0.00472694
H       -2.45427497      -0.65498947       0.64260836
H       -2.43311707       0.67328779      -0.65473579
C       -0.91132561       0.90220522       0.91563759
C       -0.01476271      -0.02253852       1.78660255
H       -0.67934791      -0.69751639       2.42135241
H        0.63392994       0.61504881       2.47327442
C        0.01484550      -1.77751727      -0.01636693
H        0.67870853      -2.42144646      -0.68295456
H       -0.62264859      -2.45592969       0.64226336
C        1.78714474       0.01002794       0.00389507
H        2.44202412       0.67113390       0.66197326
H        2.45385902      -0.65136977      -0.64189061
C        0.91606151      -0.90478549       0.90901405
