121
Properties=species:S:1:pos:R:3 pbc="F F F"
C        0.00000000       0.00000000       0.00000000
C        0.88302917       0.88302917      -0.88302917
C        1.41349287       2.06371930      -0.36335627
C        2.21025943       2.87571847      -1.17066647
C        2.47944839       2.49887264      -2.48767564
C        1.96317915       1.30454405      -3.01008531
C        2.25291633       0.90332788      -4.43962982
N        1.20217378       1.46155648      -5.28685292
C        1.35396558       1.13306725      -6.58686629
H        2.17111362       0.52846537      -6.97426358
C        0.34963934       1.59040850      -7.57332038
C        0.51162956       1.21428498      -8.91337969
C       -0.41670384       1.61642479      -9.87785133
C       -1.51839088       2.39838046      -9.53014057
C       -1.69316589       2.78374711      -8.20233620
C       -0.76691738       2.38088501      -7.24348118
O       -0.98760628       2.78586983      -5.95211642
C        1.14929712       0.50301272      -2.19753427
H        1.20191981       2.36466851       0.65724343
H        2.61259510       3.80686690      -0.78508330
H        3.07881269       3.13998023      -3.12911260
H        2.30461308      -0.19347680      -4.49010927
H        3.25498195       1.26383814      -4.70992784
H        1.36427372       0.60433522      -9.19709909
H       -2.24099864       2.70979010     -10.27755274
H       -2.54134343       3.39114010      -7.90518050
H       -0.21867913       2.37344496      -5.46250625
H        0.72084600      -0.40302165      -2.61704037
C       -0.23658431       1.21792031     -11.24983935
C       -0.08573420       0.88417280     -12.39887932
Br       0.15817767       0.34453131     -14.25677976
C       -0.88302917      -0.88302917      -0.88302917
C       -0.29139217      -1.72124152      -1.82793475
C       -1.09577931      -2.51932984      -2.64153522
C       -2.48413191      -2.48200799      -2.49985678
C       -3.08357182      -1.65426700      -1.53996969
C       -4.58874673      -1.61297653      -1.39415077
N       -5.09960853      -0.57045880      -2.28051585
C       -6.43966249      -0.43252310      -2.20171352
H       -7.08037154      -1.03343411      -1.56003691
C       -7.11116554       0.60899041      -3.01119309
C       -8.49990336       0.75345247      -2.89284333
C       -9.17485169       1.72915661      -3.63187720
C       -8.48503549       2.57528371      -4.50037838
C       -7.10398084       2.44333558      -4.63227215
C       -6.43414975       1.47073031      -3.89402936
O       -5.07565719       1.38520724      -4.05993001
C       -2.26890484      -0.84266586      -0.73827342
H        0.78658992      -1.74910746      -1.94682735
H       -0.64934159      -3.16087094      -3.39433277
H       -3.11709462      -3.08278657      -3.14802432
H       -4.83167566      -1.43204060      -0.33752928
H       -4.99228346      -2.60757099      -1.62889348
H       -9.04867631       0.10201007      -2.21904179
H       -9.00747216       3.33453442      -5.07340646
H       -6.54357843       3.08873596      -5.30013469
H       -4.82826057       0.64493576      -3.43394726
H       -2.73856959      -0.17533697      -0.02095816
C      -10.60181907       1.86601383      -3.49537010
C      -11.79690426       1.98063175      -3.38104541
Br     -13.72925592       2.16595923      -3.19619205
C       -0.88302917       0.88302917       0.88302917
C       -1.37230177       2.08840053       0.37986614
C       -2.16896258       2.90013920       1.18754258
C       -2.47918599       2.49866497       2.48814572
C       -2.00449194       1.27994482       2.99337176
C       -2.33858442       0.85193126       4.40535836
N       -1.29584653       1.36392687       5.29080979
C       -1.48717178       1.00831645       6.57841088
H       -2.32774235       0.41480028       6.93129993
C       -0.49663465       1.41729574       7.59943783
C       -0.70026818       1.01337251       8.92565353
C        0.21354055       1.36956507       9.92154776
C        1.34174618       2.13242795       9.61944839
C        1.55807802       2.54498390       8.30601154
C        0.64619840       2.18788446       7.31576275
O        0.90799461       2.61805501       6.04031957
C       -1.19034771       0.47837451       2.18112189
H       -1.12871852       2.40835744      -0.62773106
H       -2.53941535       3.84978208       0.81534787
H       -3.07858271       3.13874414       3.13057866
H       -2.41765964      -0.24417391       4.42775981
H       -3.33806999       1.23027920       4.66039874
H       -1.57390705       0.41785361       9.17394738
H        2.05309086       2.40815289      10.39128217
H        2.42752034       3.13837738       8.04412013
H        0.14164414       2.23635396       5.52256227
H       -0.79402476      -0.44761700       2.58845695
C       -0.00952642       0.94295521      11.27869372
C       -0.19634500       0.58566945      12.41530346
Br      -0.49841485       0.00796861      14.25310529
C        0.88302917      -0.88302917       0.88302917
C        2.05193128      -0.35631589       1.43232127
C        2.86404613      -1.16345683       2.22914141
C        2.49896198      -2.48746045       2.47957424
C        1.31629709      -3.01721881       1.94429262
C        0.92787369      -4.45424174       2.21375859
N        1.50706509      -5.28349073       1.16002737
C        1.19143654      -6.58865858       1.29380400
H        0.58221812      -6.99178514       2.09983931
C        1.67079349      -7.55875134       0.28382339
C        1.30787053      -8.90459914       0.42682456
C        1.73094984      -9.85416806      -0.50754562
C        2.52108008      -9.48559527      -1.59654520
C        2.89352263      -8.15175645      -1.75236166
C        2.46980672      -7.20778818      -0.82014610
O        2.86277755      -5.90965628      -1.02205386
C        0.51477908      -2.20453143       1.13053361
H        2.34379756       0.66983550       1.23538283
H        3.78634496      -0.77213976       2.64606058
H        3.14053350      -3.12843197       3.07894004
H       -0.16880336      -4.51738489       2.25266401
H        1.28030428      -4.73170362       3.21674003
H        0.69175760      -9.20451527       1.26943517
H        2.84875199     -10.22142548      -2.32383326
H        3.50688005      -7.83848366      -2.59038655
H        2.43646636      -5.43322661      -0.25242090
H       -0.38174261      -2.62919917       0.68740816
C        1.34580476     -11.23238954      -0.34701895
C        1.02324575     -12.38665003      -0.21257786
Br       0.50169511     -14.25299162       0.00480201
