157
Properties=species:S:1:pos:R:3 pbc="F F F"
C        0.00000000       0.00000000       0.00000000
C        0.88143838       0.88143838      -0.88143838
C        1.03496834       2.23118264      -0.57533368
C        1.83774587       3.03693051      -1.38648615
C        2.49405340       2.49274654      -2.50124364
C        2.32256998       1.13679458      -2.80688977
C        1.51913978       0.33091371      -1.99289084
C        3.32107544       3.39955884      -3.34923122
C        4.51410230       2.82676030      -4.00773114
C        5.25003711       3.65530981      -4.75097180
C        4.88494297       5.07876636      -4.90343254
O        5.59864901       5.80748739      -5.58613933
N        3.74046441       5.48302730      -4.23299951
C        3.28986605       6.87604504      -4.31813869
C        3.48768963       7.67461229      -3.02161916
O        3.23653410       8.87693430      -2.98264495
N        3.90611471       6.90770789      -1.95340905
C        4.13952737       7.29426179      -0.62250865
C        3.92319731       8.58032274      -0.12855684
C        4.17364705       8.86734614       1.21988520
C        4.64928667       7.87000425       2.07176744
C        4.87388550       6.58379295       1.59439130
C        4.61151581       6.30869902       0.25590643
F        4.82265115       5.06284783      -0.20046184
N        2.97504225       4.64711264      -3.44741469
H        0.53327708       2.66808746       0.28430532
H        1.94641123       4.09169682      -1.14061495
H        2.77832821       0.69084432      -3.68638763
H        1.38756124      -0.71982952      -2.23999324
H        4.79541758       1.79334601      -3.86528330
H        6.14767838       3.33335481      -5.26355940
H        2.22141907       6.86948333      -4.55915804
H        3.82790904       7.39749451      -5.11604329
H        4.01822116       5.91565563      -2.16317982
H        3.55037637       9.37981549      -0.76202746
H        3.99086145       9.87384047       1.59066181
H        5.24672780       5.79541990       2.23907869
C        4.90707603       8.17396266       3.45551378
C        5.12297462       8.42852783       4.61440134
Br       5.47206438       8.84013817       6.48822451
C       -0.88143838      -0.88143838      -0.88143838
C       -0.93386164      -0.65346442      -2.25415859
C       -1.74530828      -1.45791779      -3.05793645
C       -2.50043301      -2.49631376      -2.49129681
C       -2.44969302      -2.70865476      -1.10790656
C       -1.63568058      -1.90283330      -0.30443044
C       -3.36910149      -3.31211883      -3.38864518
C       -3.57433442      -4.73394184      -3.04031749
C       -4.34264667      -5.45216265      -3.86150939
C       -4.95570177      -4.84875329      -5.06268681
O       -5.64448923      -5.55071605      -5.79707045
N       -4.68248457      -3.50504836      -5.26895830
C       -5.24225791      -2.80941736      -6.43237451
C       -4.20493899      -2.46736085      -7.51162124
O       -4.55332481      -1.96508783      -8.57770071
N       -2.90311561      -2.72848201      -7.13563403
C       -1.71241712      -2.49807118      -7.84580952
C       -1.64998960      -1.88519035      -9.09689694
C       -0.41178362      -1.68711503      -9.72220933
C        0.76297002      -2.11058308      -9.09991042
C        0.71788263      -2.72667765      -7.85449213
C       -0.51681731      -2.90829390      -7.23919719
F       -0.55620588      -3.49738042      -6.03237453
N       -3.87873147      -2.74908397      -4.44175414
H       -0.35536848       0.14682550      -2.70851623
H       -1.78243796      -1.26732618      -4.12895886
H       -3.05409190      -3.47328976      -0.62817851
H       -1.60569468      -2.07142945       0.76939917
H       -3.09602589      -5.17849738      -2.17952361
H       -4.54317233      -6.50345010      -3.69797016
H       -5.69396100      -1.87573255      -6.08036689
H       -6.01931079      -3.42262578      -6.89951027
H       -2.80240735      -3.10270649      -6.19194277
H       -2.54357439      -1.54003911      -9.60860582
H       -0.38060777      -1.19918117     -10.69425116
H        1.61892099      -3.06638841      -7.35560160
C        2.03116411      -1.90604867      -9.75064034
C        3.09327665      -1.73475110     -10.29562665
Br       4.81062281      -1.45777743     -11.17682342
C       -0.88143838       0.88143838       0.88143838
C       -1.72054865       1.82560584       0.29533015
C       -2.52220643       2.63471625       1.10423985
C       -2.49132099       2.49626064       2.50046195
C       -1.63446235       1.55200864       3.07978334
C       -0.83304112       0.74167339       2.26822982
C       -3.34876321       3.39972458       3.32137770
C       -3.88948576       2.86863679       4.59047119
C       -4.66578032       3.68548029       5.30505811
C       -4.96845858       5.05573745       4.84294583
O       -5.69825223       5.76778272       5.52624079
N       -4.39454020       5.42581782       3.63613320
C       -4.63160669       6.76503064       3.08741245
C       -5.54843706       6.77974213       1.85574189
O       -5.90175788       7.84313323       1.35122224
N       -5.86346293       5.52296602       1.38080270
C       -6.63110474       5.16632319       0.25886988
C       -7.18696619       6.08059377      -0.63548307
C       -7.92837476       5.62749856      -1.73476533
C       -8.12134614       4.26012275      -1.93394541
C       -7.57725543       3.33566297      -1.04963125
C       -6.83429589       3.79771060       0.03230191
F       -6.30369350       2.90139414       0.88087319
N       -3.60272906       4.59210820       2.87473232
H       -1.75598974       1.94551890      -0.78444943
H       -3.17043856       3.37283671       0.63544772
H       -1.55051495       1.44726160       4.15778361
H       -0.16710404       0.01428223       2.72633870
H       -3.69278069       1.85443765       4.90682855
H       -5.11760445       3.38504462       6.24194353
H       -3.66241736       7.18706320       2.80057989
H       -5.08496614       7.40850045       3.84798024
H       -5.43960412       4.75531308       1.90213941
H       -7.05401796       7.15151303      -0.51331167
H       -8.34742712       6.35427571      -2.42766272
H       -7.71865387       2.26889837      -1.18448322
C       -8.88714672       3.80282116      -3.06444297
C       -9.52850470       3.41983108      -4.01123467
Br     -10.56552632       2.80056850      -5.54211678
C        0.88143838      -0.88143838       0.88143838
C        0.30545194      -1.63520123       1.90083148
C        1.11475723      -2.43686994       2.70953535
C        2.50071126      -2.49157087       2.49576146
C        3.07086700      -1.71973704       1.47565029
C        2.25884466      -0.91822109       0.66587858
C        3.32431185      -3.34452925       3.40102440
C        4.53124134      -3.98283093       2.83452147
C        5.24828169      -4.75352214       3.65451489
C        4.84820492      -4.95680689       5.06213006
O        5.53064474      -5.68493837       5.77669262
N        3.69611769      -4.29742803       5.46294551
C        3.21142990      -4.43209355       6.84052634
C        1.93565483      -5.27647092       6.97179533
O        1.47343536      -5.54413795       8.07854003
N        1.37508177      -5.63058438       5.76156550
C        0.19583782      -6.35204211       5.50841788
C       -0.67413711      -6.80772899       6.49848501
C       -1.83480663      -7.50941156       6.14650305
C       -2.12016314      -7.76313176       4.80455486
C       -1.26139134      -7.31915870       3.80551980
C       -0.11743597      -6.61448414       4.16726024
F        0.70655977      -6.18046685       3.19893420
N        2.93228096      -3.50953982       4.62774880
H       -0.76628061      -1.60373863       2.07960119
H        0.65432069      -3.01781037       3.50659193
H        4.14424537      -1.70193425       1.30938054
H        2.71016872      -0.31846172      -0.12090547
H        4.80031122      -3.85817364       1.79556203
H        6.14161456      -5.27236914       3.33060890
H        3.00044310      -3.42736402       7.22225333
H        3.98172532      -4.89257349       7.46714803
H        1.87436136      -5.27785614       4.94483911
H       -0.48533614      -6.62525517       7.55230029
H       -2.50716972      -7.84991067       6.93129916
H       -1.46305047      -7.50912756       2.75699192
C       -3.31348332      -8.48760935       4.45139888
C       -4.31288898      -9.09435934       4.15563074
Br      -5.92884340     -10.07542275       3.67739868
