178
Properties=species:S:1:pos:R:3 pbc="F F F"
C        1.79134240       1.79134240      -1.79134240
C        1.94487236       3.14108666      -1.48523770
C        2.74764989       3.94683453      -2.29639018
C        3.40395742       3.40265057      -3.41114767
C        3.23247400       2.04669861      -3.71679380
C        2.42904380       1.24081773      -2.90279486
C        4.23097946       4.30946286      -4.25913524
C        5.42400632       3.73666433      -4.91763517
C        6.15994114       4.56521383      -5.66087582
C        5.79484699       5.98867039      -5.81333656
O        6.50855304       6.71739142      -6.49604336
N        4.65036844       6.39293132      -5.14290354
C        4.19977008       7.78594906      -5.22804271
C        4.39759366       8.58451631      -3.93152318
O        4.14643812       9.78683833      -3.89254897
N        4.81601873       7.81761191      -2.86331308
C        5.04943140       8.20416582      -1.53241267
C        4.83310133       9.49022676      -1.03846087
C        5.08355107       9.77725016       0.30998118
C        5.55919069       8.77990828       1.16186342
C        5.78378952       7.49369698       0.68448727
C        5.52141984       7.21860305      -0.65399759
F        5.73255517       5.97275186      -1.11036587
N        3.88494628       5.55701667      -4.35731871
H        1.44318110       3.57799149      -0.62559870
H        2.85631525       5.00160084      -2.05051898
H        3.68823224       1.60074834      -4.59629165
H        2.29746527       0.19007451      -3.14989727
H        5.70532160       2.70325004      -4.77518732
H        7.05758240       4.24325883      -6.17346343
H        3.13132309       7.77938736      -5.46906206
H        4.73781306       8.30739853      -6.02594732
H        4.92812518       6.82555966      -3.07308384
H        4.46028039      10.28971952      -1.67193148
H        4.90076547      10.78374449       0.68075778
H        6.15663182       6.70532393       1.32917466
C        5.81698006       9.08386668       2.54560976
C        6.03287864       9.33843185       3.70449732
Br       6.38196840       9.75004219       5.57832049
C       -1.79134240      -1.79134240      -1.79134240
C       -2.71164668      -1.20389832      -2.65565172
C       -3.52087631      -2.01268344      -3.45731485
C       -3.40631617      -3.41028221      -3.40115727
C       -2.48610581      -3.99064590      -2.51921469
C       -1.67560356      -3.17924179      -1.71781104
C       -4.30915661      -4.23045104      -4.25996992
C       -3.79054445      -5.51697337      -4.77078799
C       -4.60634483      -6.23091032      -5.54877563
C       -5.96351848      -5.75144882      -5.88188664
O       -6.67479102      -6.43504850      -6.61214829
N       -6.32275507      -4.52928334      -5.33416490
C       -7.64852373      -3.96265056      -5.60258756
C       -7.62755352      -2.74640929      -6.53967034
O       -8.67640337      -2.23044636      -6.91897569
N       -6.35799909      -2.29754061      -6.84140401
C       -5.97006578      -1.19462005      -7.62132405
C       -6.85998546      -0.29477097      -8.20703254
C       -6.37643658       0.78435753      -8.95874101
C       -5.00293204       0.95776495      -9.13206846
C       -4.10246448       0.06758745      -8.55812220
C       -4.59469870      -0.99402352      -7.80529826
F       -3.72154712      -1.84823063      -7.24589515
N       -5.48956554      -3.76856323      -4.54115288
H       -2.81288639      -0.12303618      -2.71084872
H       -4.24029177      -1.54272016      -4.12542314
H       -2.40079603      -5.06866858      -2.41580762
H       -0.96702701      -3.63805221      -1.03235783
H       -2.78515030      -5.84663580      -4.55197286
H       -4.31422794      -7.18003553      -5.98004120
H       -8.08158472      -3.65274729      -4.64544050
H       -8.29707876      -4.72000688      -6.05407328
H       -5.60624748      -2.82427203      -6.39624916
H       -7.93483991      -0.39707083      -8.09002065
H       -7.08453365       1.48201046      -9.40122899
H       -3.03141250       0.18249143      -8.68386002
C       -4.51425472       2.06762305      -9.90860531
C       -4.10498745       2.99712920     -10.55895492
Br      -3.44323691       4.50006204     -11.61051524
C       -1.79134240       1.79134240       1.79134240
C       -3.10499130       1.41168090       2.05452453
C       -3.91129100       2.22261005       2.85697354
C       -3.40314083       3.41119944       3.40341539
C       -2.08441332       3.78958605       3.12196703
C       -1.27783051       2.97578701       2.31903888
C       -4.31102534       4.25405997       4.23449226
C       -3.70974272       5.02632726       5.34223584
C       -4.53838886       5.76368959       6.08395234
C       -5.98908833       5.80102078       5.80674483
O       -6.71565561       6.48291211       6.52342009
N       -6.41868427       5.03078429       4.73673474
C       -7.83993522       4.99723973       4.37658690
C       -8.53520501       3.66917986       4.70924828
O       -9.74561756       3.53753560       4.54267226
N       -7.67315630       2.68215760       5.14162983
C       -7.95360927       1.34827462       5.48412600
C       -9.21453530       0.76065808       5.38659558
C       -9.39362510      -0.58325942       5.74045437
C       -8.31309374      -1.33647336       6.20061518
C       -7.05037864      -0.76479477       6.30741536
C       -6.88324867       0.56765147       5.94312034
F       -5.66015510       1.11495636       6.04056144
N       -5.58171178       4.24973608       3.96783380
H       -3.51375626       0.49431484       1.63870019
H       -4.93811531       1.91852341       3.05179634
H       -1.67088013       4.72420093       3.49019118
H       -0.25654167       3.27930108       2.10159429
H       -2.65338269       4.96869409       5.56168217
H       -4.19569085       6.35492033       6.92369349
H       -7.91710292       5.16562192       3.29704767
H       -8.37897223       5.79508131       4.89710537
H       -6.69240645       2.96122041       5.17314182
H      -10.07684924       1.31581554       5.02926661
H      -10.38236452      -1.02831602       5.64970368
H       -6.19837943      -1.33182165       6.66622331
C       -8.50620302      -2.71611869       6.56515265
C       -8.66793205      -3.87157166       6.87045278
Br      -8.92943420      -5.73984137       7.36409728
C        1.79134240      -1.79134240       1.79134240
C        1.77528880      -3.17347579       1.62243213
C        2.57869610      -3.97835878       2.43381971
C        3.40488125      -3.40195081       3.41092360
C        3.40374654      -2.01174157       3.58047830
C        2.59939269      -1.20693773       2.76632597
C        4.22629245      -4.30579540       4.26748971
C        5.53570204      -3.80568198       4.73692178
C        6.26324368      -4.63247843       5.49030868
C        5.77763517      -5.98468372       5.83453506
O        6.48642649      -6.71631753       6.51924379
N        4.53165941      -6.32467554       5.32986835
C        3.95708460      -7.64402501       5.61265224
C        3.93021505      -8.58437024       4.39904786
O        3.55810802      -9.74949232       4.51822509
N        4.30221915      -7.97829020       3.21643437
C        4.34767497      -8.51853764       1.91979727
C        3.95144643      -9.81551105       1.59483149
C        4.02170018     -10.26095591       0.26816396
C        4.49706358      -9.41182354      -0.73165156
C        4.89965368      -8.11726111      -0.42391556
C        4.81532763      -7.68328618       0.89540667
F        5.19827451      -6.42923625       1.18816213
N        3.77101315      -5.49154570       4.53672281
H        1.14083380      -3.63552623       0.87041125
H        2.55422892      -5.05784861       2.29635755
H        3.99586954      -1.53370102       4.35570167
H        2.60093719      -0.12877379       2.90772605
H        5.90082157      -2.82894621       4.45399118
H        7.23951367      -4.36230144       5.87248956
H        2.92775656      -7.49560746       5.95640850
H        4.52547199      -8.13984499       6.40584193
H        4.53479298      -6.98878429       3.30319141
H        3.57329586     -10.50203913       2.34659640
H        3.70001700     -11.27293236       0.03080282
H        5.27548214      -7.44284597      -1.18554702
C        4.56899469      -9.87833304      -2.09209076
C        4.62923700     -10.26903475      -3.23145858
Br       4.72664372     -10.90076637      -5.07371999
C       -0.00445707       0.01189536      -1.78238275
H       -0.66409135       0.67374010      -2.43557963
H        0.65740317      -0.63156657      -2.45157240
C       -0.90989263      -0.90692880      -0.91072765
C        0.90977584       0.90977584      -0.90977584
C       -0.00465871       1.77757030       0.00794375
H       -0.66225468       2.44313916      -0.64384735
H        0.64322798       2.43503045       0.67728295
C       -1.78241447       0.00034974      -0.00472694
H       -2.45427497      -0.65498947       0.64260836
H       -2.43311707       0.67328779      -0.65473579
C       -0.91132561       0.90220522       0.91563759
C       -0.01476271      -0.02253852       1.78660255
H       -0.67934791      -0.69751639       2.42135241
H        0.63392994       0.61504881       2.47327442
C        0.01484550      -1.77751727      -0.01636693
H        0.67870853      -2.42144646      -0.68295456
H       -0.62264859      -2.45592969       0.64226336
C        1.78714474       0.01002794       0.00389507
H        2.44202412       0.67113390       0.66197326
H        2.45385902      -0.65136977      -0.64189061
C        0.91606151      -0.90478549       0.90901405
