157
Properties=species:S:1:pos:R:3 pbc="F F F"
C        0.00000000       0.00000000       0.00000000
C        0.88139929       0.88139929      -0.88139929
C        1.29706683       2.12678216      -0.41861407
C        2.08623488       2.94361103      -1.23418190
C        2.47054533       2.51533670      -2.50784013
C        2.07007866       1.24815116      -2.95029571
C        1.26501630       0.43647364      -2.14458560
N        3.25898379       3.28908808      -3.37453749
C        3.53955609       4.64229461      -3.27945038
O        3.01517058       5.42401773      -2.48741185
C        4.41264316       5.15823673      -4.42601160
N        5.40485000       4.17652340      -4.86025679
N        4.95103700       3.13231101      -5.64683512
C        5.81331702       2.23832618      -6.02734548
C        7.25673110       2.29622095      -5.70391935
C        7.66300527       3.28239773      -4.90602076
C        6.70787121       4.28722712      -4.39553004
O        7.11430624       5.15511176      -3.62957742
C        5.33621231       1.08213602      -6.84273169
C        5.93727457      -0.18153019      -6.76491429
C        5.43597361      -1.24662816      -7.52054112
C        4.32869768      -1.05290812      -8.34465781
C        3.71435752       0.19473248      -8.42059528
C        4.21579737       1.26030728      -7.66790298
H        1.01493001       2.47781529       0.56954482
H        2.40441479       3.90492363      -0.84160874
H        2.35351895       0.89009596      -3.93630431
H        0.93943875      -0.53175707      -2.51237608
H        3.62175682       2.84491790      -4.21793810
H        4.91142667       6.07325551      -4.09256280
H        3.76672955       5.40037475      -5.27714943
H        7.95593781       1.58138644      -6.11560763
H        8.69536040       3.41001429      -4.61209808
H        6.77804349      -0.37256516      -6.10327061
H        5.90848087      -2.22356918      -7.45087620
H        2.84576914       0.34906507      -9.05645392
H        3.72615829       2.23043523      -7.73398511
C        3.81002040      -2.15383465      -9.11442053
C        3.37562817      -3.07586061      -9.75909682
Br       2.67325269      -4.56669862     -10.80148385
C       -0.88139929      -0.88139929      -0.88139929
C       -0.31427212      -1.93437438      -1.59381656
C       -1.11744376      -2.72834454      -2.41823952
C       -2.48864040      -2.47993218      -2.52514958
C       -3.05205533      -1.43579707      -1.78067313
C       -2.24840245      -0.62791312      -0.96975997
N       -3.34714228      -3.23857100      -3.33689607
C       -2.99545838      -4.11861008      -4.34723263
O       -1.86057990      -4.26813238      -4.79788788
C       -4.20369180      -4.74827644      -5.04492325
N       -5.31020331      -5.00622999      -4.12519688
N       -6.07248975      -3.91722308      -3.74047029
C       -7.04878965      -4.12188105      -2.90831799
C       -7.41746535      -5.45601957      -2.38338647
C       -6.64115824      -6.48201130      -2.72825422
C       -5.48066993      -6.28823761      -3.62172084
O       -4.76619859      -7.25105434      -3.88174249
C       -7.85773016      -2.95380493      -2.44954494
C       -8.43929828      -2.90605325      -1.17530714
C       -9.16012915      -1.77679112      -0.77296631
C       -9.29075230      -0.69170106      -1.63799401
C       -8.70629035      -0.72155749      -2.90183744
C       -7.98784651      -1.85028685      -3.30587425
H        0.74780122      -2.14910842      -1.52189329
H       -0.64877172      -3.54932994      -2.95284551
H       -4.11499006      -1.21959455      -1.84533461
H       -2.69493430       0.19511760      -0.42024106
H       -4.35186930      -3.09188857      -3.24085494
H       -3.88060264      -5.68239852      -5.51424381
H       -4.55283843      -4.06473689      -5.82667841
H       -8.29277405      -5.59610647      -1.76405136
H       -6.82680620      -7.49396166      -2.39670492
H       -8.32295540      -3.72055923      -0.46523431
H       -9.60532180      -1.74925340       0.21878732
H       -8.79914559       0.12541447      -3.57755700
H       -7.53385409      -1.86139130      -4.29533324
C      -10.02612165       0.47264725      -1.21713189
C      -10.64199348       1.44778897      -0.86465987
Br     -11.63780614       3.02451064      -0.29474242
C       -0.88139929       0.88139929       0.88139929
C       -1.31342787       2.11825063       0.41078457
C       -2.10261048       2.93533107       1.22608627
C       -2.47062091       2.51569156       2.50740969
C       -2.05377576       1.25669895       2.95805081
C       -1.24865591       0.44501581       2.15240383
N       -3.25817192       3.29019756       3.37423988
C       -3.55265002       4.63968981       3.26896125
O       -3.04338790       5.41871683       2.46449544
C       -4.41969228       5.15829698       4.41890223
N       -5.39821888       4.17139425       4.87201707
N       -4.92689778       3.13917519       5.66411016
C       -5.77686617       2.24071436       6.06140816
C       -7.22378844       2.28172988       5.75135308
C       -7.64712438       3.25626291       4.94803647
C       -6.70661656       4.26519226       4.41881956
O       -7.12867019       5.12174996       3.64857528
C       -5.28090304       1.09702714       6.88314984
C       -5.87048883      -0.17300237       6.82317220
C       -5.35177817      -1.22595027       7.58405867
C       -4.23861173      -1.01375937       8.39559501
C       -3.63561293       0.24035449       8.45371787
C       -4.15443906       1.29380610       7.69576246
H       -1.04411639       2.46242998      -0.58334588
H       -2.43375673       3.88974343       0.82744700
H       -2.32434350       0.90546507       3.95011065
H       -0.91028237      -0.51648204       2.52625743
H       -3.60859578       2.85072762       4.22528941
H       -4.93041630       6.06526707       4.08156161
H       -3.76805425       5.41476309       5.26143640
H       -7.91212563       1.56425769       6.17654856
H       -8.68341524       3.37119666       4.66286087
H       -6.71564963      -0.37840384       6.17150316
H       -5.81550286      -2.20797685       7.52826188
H       -2.76252777       0.40907397       9.07968638
H       -3.67355271       2.26914908       7.74787684
C       -3.70204672      -2.10223083       9.17079039
C       -3.25267353      -3.01382567       9.82001653
Br      -2.52607508      -4.48779743      10.86976027
C        0.88139929      -0.88139929       0.88139929
C        0.44936776      -2.15608177       1.23701353
C        1.24649310      -2.95534013       2.06219459
C        2.47988298      -2.48870141       2.52513776
C        2.91633130      -1.21579264       2.13640158
C        2.11305098      -0.40643002       1.32659454
N        3.32411270      -3.24104745       3.35744920
C        3.00309177      -4.37900264       4.07920667
O        1.86959613      -4.83541324       4.22159078
C        4.17300101      -4.91718885       4.90670163
N        5.45977016      -4.74769090       4.23416913
N        6.00935052      -3.47768616       4.24314645
C        7.14325286      -3.30147183       3.63426400
C        7.89899737      -4.38751247       2.97036156
C        7.32893083      -5.59074908       2.93174386
C        6.01018112      -5.82553514       3.55491211
O        5.50040187      -6.93748091       3.46111265
C        7.73296587      -1.93027863       3.59783552
C        8.51357688      -1.48445309       2.52262869
C        9.01756403      -0.17961333       2.51270921
C        8.73313457       0.68279910       3.57011190
C        7.94757406       0.25592361       4.63803483
C        7.44543152      -1.04835459       4.65022151
H       -0.50285573      -2.54135123       0.88470498
H        0.88819099      -3.94930340       2.31345277
H        3.87038495      -0.82729337       2.48224090
H        2.45248854       0.58881304       1.05638226
H        4.26825554      -2.89285625       3.52350102
H        3.99186608      -5.97731987       5.10805902
H        4.20498001      -4.37889906       5.86037467
H        8.88218151      -4.21715267       2.55359770
H        7.80002205      -6.44720857       2.47024215
H        8.72084629      -2.12124772       1.66665493
H        9.62021570       0.15679921       1.67237140
H        7.71676704       0.92727947       5.46180055
H        6.83102339      -1.37016685       5.48938839
C        9.24638680       2.02810793       3.55232742
C        9.67623554       3.15480408       3.53743292
Br      10.37126461       4.97657646       3.51334977
