149
Properties=species:S:1:pos:R:3 pbc="F F F"
C        0.00000000       0.00000000       0.00000000
C        0.88139929       0.88139929      -0.88139929
C        1.29706683       2.12678216      -0.41861407
C        2.08623488       2.94361103      -1.23418190
C        2.47054533       2.51533670      -2.50784013
C        2.07007866       1.24815116      -2.95029571
C        1.26501630       0.43647364      -2.14458560
N        3.25898379       3.28908808      -3.37453749
C        3.53955609       4.64229461      -3.27945038
O        3.01517058       5.42401773      -2.48741185
C        4.41264316       5.15823673      -4.42601160
N        5.40485000       4.17652340      -4.86025679
N        4.95103700       3.13231101      -5.64683512
C        5.81331702       2.23832618      -6.02734548
C        7.25673110       2.29622095      -5.70391935
C        7.66300527       3.28239773      -4.90602076
C        6.70787121       4.28722712      -4.39553004
O        7.11430624       5.15511176      -3.62957742
C        5.33621231       1.08213602      -6.84273169
C        5.93727457      -0.18153019      -6.76491429
C        5.43597361      -1.24662816      -7.52054112
C        4.32869768      -1.05290812      -8.34465781
Br       3.64801551      -2.49770065      -9.35485005
C        3.71435752       0.19473248      -8.42059528
C        4.21579737       1.26030728      -7.66790298
H        1.01493001       2.47781529       0.56954482
H        2.40441479       3.90492363      -0.84160874
H        2.35351895       0.89009596      -3.93630431
H        0.93943875      -0.53175707      -2.51237608
H        3.62175682       2.84491790      -4.21793810
H        4.91142667       6.07325551      -4.09256280
H        3.76672955       5.40037475      -5.27714943
H        7.95593781       1.58138644      -6.11560763
H        8.69536040       3.41001429      -4.61209808
H        6.77804349      -0.37256516      -6.10327061
H        5.90848087      -2.22356918      -7.45087620
H        2.84576914       0.34906507      -9.05645392
H        3.72615829       2.23043523      -7.73398511
C       -0.88139929      -0.88139929      -0.88139929
C       -1.61235458      -0.31055339      -1.91955510
C       -2.43666849      -1.11407544      -2.71328388
C       -2.52504422      -2.48916136      -2.47951658
C       -1.76217842      -3.05582442      -1.45052268
C       -0.95121737      -2.25213601      -0.64272216
N       -3.33564379      -3.34826329      -3.23870227
C       -4.36002303      -2.99824624      -4.10303181
O       -4.82529975      -1.86701414      -4.23428627
C       -5.05110047      -4.20718885      -4.73860218
N       -4.12184323      -5.29999030      -5.01979666
N       -3.71589169      -6.07016475      -3.94412669
C       -2.87506792      -7.03439130      -4.16952947
C       -2.36140202      -7.38172831      -5.51374107
C       -2.72693241      -6.59779411      -6.52669724
C       -3.63129055      -5.44998716      -6.30935067
O       -3.91055073      -4.72762203      -7.26082266
C       -2.39363415      -7.85126123      -3.01618464
C       -1.11237447      -8.41858465      -2.98969954
C       -0.68881941      -9.14756511      -1.87350206
C       -1.53971294      -9.30054525      -0.78018919
Br      -0.95881115     -10.27653909       0.73018534
C       -2.81040602      -8.73041264      -0.78886662
C       -3.23562345      -8.00384456      -1.90453962
H       -1.55504357       0.75466156      -2.12281848
H       -2.98603339      -0.64226670      -3.52264708
H       -1.81220181      -4.12183356      -1.24588385
H       -0.38717062      -2.70165864       0.16877149
H       -3.22645289      -4.35342327      -3.10473666
H       -5.53483310      -3.87889854      -5.66351335
H       -5.82087458      -4.57311853      -4.05026062
H       -1.73377462      -8.24817134      -5.67098591
H       -2.40499227      -6.76803813      -7.54444237
H       -0.41312805      -8.28476076      -3.81086013
H        0.30820323      -9.58156203      -1.86242909
H       -3.47519694      -8.84072591       0.06463472
H       -4.23026245      -7.56121011      -1.89910606
C       -0.88139929       0.88139929       0.88139929
C       -0.30150128       1.66871092       1.87225086
C       -1.11040952       2.45949169       2.69412661
C       -2.49732610       2.47421245       2.52218361
C       -3.06581399       1.69998567       1.50272586
C       -2.26141620       0.89344109       0.69121825
N       -3.36299366       3.24393593       3.31567977
C       -3.07890229       3.85787724       4.52452155
O       -2.04732995       3.70269548       5.17657473
C       -4.28105193       4.59124611       5.12459345
N       -5.12492706       5.21174624       4.10495689
N       -5.96439352       4.37439878       3.39139083
C       -6.70864000       4.90311974       2.46722896
C       -6.74078321       6.35177707       2.16431111
C       -5.89023589       7.13202528       2.82916260
C       -4.97842333       6.56713726       3.84506778
O       -4.18117401       7.31260899       4.40521243
C       -7.59150027       4.01084547       1.65873428
C       -7.90816346       4.29013803       0.32235717
C       -8.71071171       3.40856701      -0.40939215
C       -9.18747519       2.24366081       0.18931137
Br     -10.26188473       1.05004577      -0.80676559
C       -8.86889988       1.94821672       1.51256869
C       -8.06908242       2.82946770       2.24545750
H        0.77426395       1.67708346       2.02038097
H       -0.62853598       3.07151765       3.45089353
H       -4.14121109       1.69156180       1.34714632
H       -2.71927446       0.27749863      -0.07671532
H       -4.33878428       3.31759179       3.02823674
H       -3.90822607       5.35224671       5.81677220
H       -4.88624681       3.87141076       5.68659616
H       -7.44036391       6.76299574       1.44957222
H       -5.83703577       8.20119635       2.67924065
H       -7.52054905       5.17093235      -0.18273246
H       -8.94839199       3.63376612      -1.44637022
H       -9.23234774       1.03705053       1.98188986
H       -7.82515192       2.58702216       3.27840455
C        0.88139929      -0.88139929       0.88139929
C        1.87099578      -1.67015151       0.30131578
C        2.66399588      -2.49407570       1.10595623
C        2.47824942      -2.52464006       2.49083268
C        1.49878623      -1.70450758       3.06523172
C        0.69125054      -0.89340403       2.26142097
N        3.23929714      -3.33160782       3.35170440
C        4.05299937      -4.39908983       3.00921188
O        4.12564045      -4.90895658       1.89200313
C        4.70779884      -5.06964246       4.21945019
N        5.06218987      -4.11303538       5.26640494
N        4.03090944      -3.64036009       6.05891360
C        4.32167219      -2.77459203       6.98272447
C        5.69527769      -2.29893789       7.26265582
C        6.66485997      -2.72941645       6.45714734
C        6.37308597      -3.66548103       5.35206137
O        7.28661989      -4.00533297       4.60704256
C        3.21723914      -2.22199547       7.82184541
C        3.25747519      -0.92121311       8.34197037
C        2.18482492      -0.43092778       9.09413387
C        1.06826487      -1.23479904       9.31738346
Br      -0.38329232      -0.56398366      10.32447357
C        1.01051767      -2.52447027       8.79469734
C        2.08267407      -3.01631032       8.04502323
H        2.03663266      -1.65842979      -0.77186197
H        3.43524249      -3.08948190       0.62622278
H        1.33206503      -1.70887209       4.13898209
H       -0.08242439      -0.28405149       2.71843067
H        3.14658396      -3.18175300       4.35627586
H        5.60209052      -5.59865808       3.87649637
H        4.00644548      -5.79988568       4.63792257
H        5.90675110      -1.64705119       8.09912958
H        7.69904104      -2.43947551       6.57895622
H        4.09754203      -0.25803844       8.15316846
H        2.22538263       0.58066738       9.49107263
H        0.13851212      -3.15287727       8.95989873
H        2.02539717      -4.02522251       7.63995894
