190
Properties=species:S:1:pos:R:3 pbc="F F F"
C        1.79161991       1.79161991      -1.79161991
C        1.26209346       2.94428712      -2.36653807
C        2.06948030       3.74933827      -3.17490999
C        3.41059362       3.40842778      -3.39953235
C        3.92729041       2.23568906      -2.83137002
C        3.11783062       1.43059055      -2.02309401
C        4.23363849       4.28734856      -4.28191888
C        5.67752490       4.39061465      -3.97586185
C        6.41193364       5.16284023      -4.77914326
C        5.80590542       5.86168018      -5.92838101
O        6.52402492       6.53629578      -6.65913336
N        4.43992906       5.68265965      -6.09454958
C        3.79493290       6.20529967      -7.29736555
C        3.07416060       7.53784957      -7.10924817
O        2.83411371       8.24413684      -8.08775425
N        2.62484812       7.76538727      -5.81761284
C        1.81971802       8.83707618      -5.36728657
C        1.11335428       9.65609926      -6.25991442
C        0.31562898      10.71005366      -5.80929452
C        0.21282012      10.95773405      -4.44781050
C        0.89159199      10.15022780      -3.53921208
C        1.70206527       9.08633289      -3.98153093
C        2.40240415       8.25294525      -2.94367900
N        3.65275704       4.92154654      -5.25566250
H        0.22407501       3.22238854      -2.19964533
H        1.64146525       4.64115757      -3.62850904
H        4.94559341       1.91011495      -3.02660576
H        3.52664489       0.52072144      -1.58975639
H        6.11180530       3.88818316      -3.12533915
H        7.47615755       5.30470765      -4.63530071
H        3.06112870       5.46890820      -7.64490658
H        4.54453891       6.33825938      -8.08454445
H        2.97332930       7.10118874      -5.13326391
H        1.14254696       9.48537535      -7.33264217
H       -0.21709617      11.32193184      -6.53200602
H        0.79774859      10.35531505      -2.47249622
H        3.44333897       8.06406479      -3.22493712
H        1.87709505       7.30103560      -2.81039658
H        2.43082155       8.76590597      -1.97634123
C       -0.59856042      12.05062227      -3.97785629
C       -1.27809162      12.96591615      -3.58426963
Br      -2.37683609      14.44586895      -2.94787330
C       -1.79161991      -1.79161991      -1.79161991
C       -1.42883330      -3.11510682      -2.02897853
C       -2.23554771      -3.92045992      -2.83772093
C       -3.41206643      -3.40614447      -3.40034284
C       -3.75704449      -2.06706089      -3.17024412
C       -2.94831102      -1.26204571      -2.36115844
C       -4.23668344      -4.29558901      -4.27063348
C       -5.69995067      -4.07654102      -4.26750971
C       -6.43039729      -4.86203476      -5.06148508
C       -5.79640340      -5.88572226      -5.91384094
O       -6.50299894      -6.56473845      -6.65171666
N       -4.41628171      -5.98838617      -5.81247041
C       -3.69774260      -6.86103540      -6.73882012
C       -3.32325352      -8.22753625      -6.17046858
O       -3.07245282      -9.15776374      -6.93578825
N       -3.16628758      -8.24837361      -4.79318704
C       -2.70079397      -9.32282552      -4.00046128
C       -2.04102662     -10.42464517      -4.56369617
C       -1.57890424     -11.48069495      -3.77537797
C       -1.77146987     -11.44527739      -2.40161742
C       -2.40998244     -10.35593719      -1.81511225
C       -2.88368105      -9.28632589      -2.59992214
C       -3.56000716      -8.14067005      -1.89835118
N       -3.64374130      -5.21518683      -4.97103796
H       -0.52003912      -3.52835886      -1.59771090
H       -1.93571590      -4.94953014      -3.02588583
H       -4.63176821      -1.61770589      -3.63284002
H       -3.22228000      -0.22332805      -2.19151466
H       -6.15864264      -3.33561265      -3.63107232
H       -7.50867183      -4.78127168      -5.12622240
H       -2.77407961      -6.35621649      -7.04464738
H       -4.30877225      -7.02608385      -7.63248663
H       -3.47880725      -7.40257763      -4.32639707
H       -1.84473961     -10.48509500      -5.63072988
H       -1.07140958     -12.31667720      -4.24875492
H       -2.55044308     -10.34111564      -0.73400115
H       -4.47068125      -7.83713020      -2.42452942
H       -2.87475050      -7.28931238      -1.82446435
H       -3.86646662      -8.42158581      -0.88501632
C       -1.30794361     -12.53699464      -1.58497989
C       -0.91974038     -13.45130783      -0.90104595
Br      -0.29204857     -14.92967494       0.20481737
C       -1.79161991       1.79161991       1.79161991
C       -2.10198844       1.38421746       3.08671275
C       -2.91066725       2.19107833       3.89198299
C       -3.40010427       3.41180043       3.40664904
C       -3.09704638       3.80240312       2.09489999
C       -2.28812480       2.99349763       1.28989275
C       -4.27315982       4.23569570       4.29405041
C       -4.19880624       5.70533500       4.13986016
C       -4.99508349       6.43625651       4.92257713
C       -5.91754934       5.79780501       5.88061225
O       -6.65415477       6.50693667       6.55836261
N       -5.87898590       4.41146393       5.92668847
C       -6.87222884       3.69823554       6.72713374
C       -6.38076454       3.24192514       8.09856866
O       -7.19611404       2.98606544       8.98382533
N       -5.01356121       3.02383249       8.17045454
C       -4.28913275       2.47911955       9.25582847
C       -4.92753323       1.79894408      10.30289065
C       -4.20655333       1.25856464      11.36985919
C       -2.82567558       1.39187871      11.40081038
C       -2.16549140       2.04929051      10.36624996
C       -2.88188599       2.60164148       9.28640160
C       -2.10278189       3.29410985       8.20213665
N       -5.03765222       3.63592300       5.15639086
H       -1.72794793       0.44075238       3.47740857
H       -3.15634120       1.85674721       4.89804346
H       -3.50220458       4.71475801       1.66535154
H       -2.06160244       3.30323417       0.27228610
H       -3.51166825       6.16639580       3.44726356
H       -5.01075281       7.51877775       4.88663535
H       -7.19418740       2.81098229       6.16977379
H       -7.74576755       4.34046578       6.88110940
H       -4.49730068       3.35086429       7.35961699
H       -6.00350984       1.64737897      10.30967567
H       -4.73716616       0.73762207      12.16205347
H       -1.07981957       2.14259291      10.40314738
H       -2.57630046       4.23900414       7.91703628
H       -2.02046029       2.64272010       7.32534684
H       -1.09077126       3.54363124       8.53866625
C       -2.07805579       0.84735149      12.50451086
C       -1.45192421       0.39130994      13.42886001
Br      -0.43952241      -0.34607067      14.92345441
C        1.79161991      -1.79161991       1.79161991
C        3.08826320      -2.09829653       1.38635892
C        3.89353740      -2.90697877       2.19321240
C        3.40662367      -3.40011548       3.41181459
C        2.09337652      -3.10074908       3.80022389
C        1.28836922      -2.29181906       2.99132690
C        4.29413148      -4.27303321       4.23574123
C        4.13659647      -4.20220501       5.70519993
C        4.91945510      -4.99836973       6.43609230
C        5.88087186      -5.91736938       5.79772537
O        6.55868202      -6.65404266       6.50672937
N        5.92986770      -5.87569619       4.41157440
C        6.73401103      -6.86565166       3.69793543
C        8.10536103      -6.37022763       3.24566969
O        8.99293819      -7.18309981       2.98996681
N        8.17475053      -5.00240144       3.03069626
C        9.25972659      -4.27444217       2.48991201
C       10.30964360      -4.90909430       1.81063005
C       11.37621246      -4.18463286       1.27413185
C       11.40387643      -2.80398401       1.41050423
C       10.36646314      -2.14747177       2.06709697
C        9.28697864      -2.86740182       2.61554862
C        8.19952689      -2.09215402       3.30734748
N        5.15942722      -5.03435146       3.63618741
H        3.48018911      -1.72136281       0.44455696
H        4.90085089      -3.14974597       1.86053500
H        1.66273312      -3.50881697       4.71076404
H        0.26960447      -2.06817498       3.29934328
H        3.44151227      -3.51757187       6.16624347
H        4.88120218      -5.01646727       7.51849646
H        6.17927503      -7.18688980       2.80877865
H        6.88849122      -7.74024711       4.33860441
H        7.36208733      -4.48861013       3.35708449
H       10.31909318      -5.98472207       1.65674924
H       12.17068374      -4.71239577       0.75376219
H       10.40080098      -1.06192768       2.16283120
H        7.91340883      -2.56833965       4.25059240
H        7.32397373      -2.01031809       2.65423542
H        8.53331697      -1.07996082       3.55979096
C       12.50712819      -2.05279421       0.86999574
C       13.43110154      -1.42367275       0.41731988
Br      14.92508830      -0.40643655      -0.31461871
C       -0.00445707       0.01189536      -1.78238275
H       -0.66409135       0.67374010      -2.43557963
H        0.65740317      -0.63156657      -2.45157240
C       -0.90989263      -0.90692880      -0.91072765
C        0.90977584       0.90977584      -0.90977584
C       -0.00465871       1.77757030       0.00794375
H       -0.66225468       2.44313916      -0.64384735
H        0.64322798       2.43503045       0.67728295
C       -1.78241447       0.00034974      -0.00472694
H       -2.45427497      -0.65498947       0.64260836
H       -2.43311707       0.67328779      -0.65473579
C       -0.91132561       0.90220522       0.91563759
C       -0.01476271      -0.02253852       1.78660255
H       -0.67934791      -0.69751639       2.42135241
H        0.63392994       0.61504881       2.47327442
C        0.01484550      -1.77751727      -0.01636693
H        0.67870853      -2.42144646      -0.68295456
H       -0.62264859      -2.45592969       0.64226336
C        1.78714474       0.01002794       0.00389507
H        2.44202412       0.67113390       0.66197326
H        2.45385902      -0.65136977      -0.64189061
C        0.91606151      -0.90478549       0.90901405
