130
Properties=species:S:1:pos:R:3 pbc="F F F"
C        1.79176449       1.79176449      -1.79176449
C        1.47733330       1.95646262      -3.13884928
C        2.28304509       2.76434060      -3.94416955
C        3.40266581       3.41380136      -3.40538240
C        4.28103824       4.27560028      -4.27933954
C        5.41557040       3.46720766      -4.91392343
C        6.29231984       4.33126936      -5.78829799
C        7.39822832       5.00020764      -5.24402513
C        8.19735932       5.81569342      -6.04764257
C        7.89054269       5.96948465      -7.39772243
Br       8.97171999       7.07393597      -8.48601359
C        6.79140433       5.31618337      -7.95129101
C        5.99261969       4.50058579      -7.14711453
C        3.70998296       3.23215497      -2.04936909
C        2.90507363       2.42436884      -1.24326726
H        0.61095944       1.46335158      -3.57051258
H        2.03018664       2.88582592      -4.99562007
H        4.68649518       5.10202574      -3.68158481
H        3.66677781       4.74901584      -5.05600425
H        5.01055126       2.63956823      -5.51181636
H        6.03209400       2.99387687      -4.13785762
H        7.64418251       4.88829498      -4.19017072
H        9.05243990       6.32476372      -5.61200078
H        6.54773713       5.43532947      -9.00390120
H        5.13546519       3.99669366      -7.58805416
H        4.57812623       3.72101976      -1.61236346
H        3.15448406       2.29676075      -0.19329043
C       -1.79176449      -1.79176449      -1.79176449
C       -1.75467740      -1.64173726      -3.17623054
C       -2.55991869      -2.44959727      -3.98203926
C       -3.40127901      -3.41286836      -3.40770220
C       -4.28163429      -4.27612205      -4.27822172
C       -5.65246960      -3.63513422      -4.50909767
C       -6.53095632      -4.50013091      -5.38079996
C       -7.35449932      -5.48007562      -4.80788615
C       -8.15170189      -6.29410282      -5.61489060
C       -8.12451392      -6.13473849      -6.99849736
Br      -9.20310605      -7.23698450      -8.09157900
C       -7.30671586      -5.16962343      -7.58253941
C       -6.50974357      -4.35566389      -6.77491255
C       -3.43260435      -3.54666738      -2.01223529
C       -2.62794623      -2.73920951      -1.20555399
H       -1.10516167      -0.90279369      -3.63686824
H       -2.52509463      -2.32409147      -5.06244653
H       -4.39337285      -5.26386818      -3.81286470
H       -3.77750104      -4.45831683      -5.23598003
H       -5.54139711      -2.64629414      -4.97424462
H       -6.15889015      -3.45340810      -3.55153024
H       -7.38047201      -5.61368810      -3.72848810
H       -8.78667576      -7.04660381      -5.15592483
H       -7.28138041      -5.04367219      -8.66191520
H       -5.87301501      -3.60673752      -7.24046049
H       -4.08340720      -4.28287206      -1.54523019
H       -2.66087159      -2.85782574      -0.12583790
C       -1.79176449       1.79176449       1.79176449
C       -2.81239035       2.54470876       1.21554608
C       -3.61946721       3.34942153       2.02266648
C       -3.41247809       3.40101564       3.40835584
C       -4.27602660       4.28156987       4.27838160
C       -3.68317577       5.68489111       4.42863461
C       -4.54917093       6.56405165       5.29866461
C       -4.35779192       6.59711071       6.68755845
C       -5.17162769       7.39418408       7.49488353
C       -6.18348789       8.15741312       6.91684876
Br      -7.28602216       9.23619979       8.00944761
C       -6.38966443       8.13007733       5.53913694
C       -5.57530227       7.33283332       4.73218441
C       -2.37641812       2.64284552       3.97224338
C       -1.56868386       1.83800087       3.16602500
H       -2.98823772       2.51255229       0.14403359
H       -4.41333324       3.93504821       1.56325118
H       -4.39884299       3.80959869       5.26166407
H       -5.28539930       4.33566904       3.85072956
H       -3.55940278       6.15762105       3.44491202
H       -2.67347720       5.63254304       4.85780825
H       -3.57182467       6.00249235       7.14833119
H       -5.00889490       7.41149983       8.56880966
H       -7.17947724       8.72275786       5.08473269
H       -5.74566253       7.31649801       3.65805248
H       -2.19370369       2.67350315       5.04430261
H       -0.77230724       1.25343071       3.61879728
C        1.79176449      -1.79176449       1.79176449
C        2.77623806      -2.58696445       1.20944268
C        3.58337838      -3.39167776       2.01649909
C        3.41266851      -3.40113241       3.40804866
C        4.27594429      -4.28150388       4.27852989
C        3.65061459      -5.66382624       4.48226066
C        4.51637210      -6.54287111       5.35264398
C        4.36183618      -6.53414185       6.74648306
C        5.17593735      -7.33139869       7.55335926
C        6.15133145      -8.13668677       6.96973156
Br       7.25422247      -9.21575209       8.06169498
C        6.32080613      -8.15124100       5.58683157
C        5.50619351      -7.35378959       4.78033690
C        2.41257587      -2.60061757       3.97831357
C        1.60480651      -1.79573093       3.17217229
H        2.92381662      -2.58781483       0.13319215
H        4.34882159      -4.01046744       1.55234361
H        4.43770931      -3.78729014       5.24510629
H        5.27160158      -4.37413910       3.82605721
H        3.48786176      -6.15878391       3.51529018
H        2.65462671      -5.57289197       4.93630981
H        3.60455969      -5.90654485       7.21154366
H        5.04192027      -7.31600942       8.63127472
H        7.08214878      -8.77683784       5.12798118
H        5.64780123      -7.37037039       3.70204139
H        2.25818943      -2.59806923       5.05525079
H        0.83664694      -1.17810408       3.62978422
C       -0.00445707       0.01189536      -1.78238275
H       -0.66409135       0.67374010      -2.43557963
H        0.65740317      -0.63156657      -2.45157240
C       -0.90989263      -0.90692880      -0.91072765
C        0.90977584       0.90977584      -0.90977584
C       -0.00465871       1.77757030       0.00794375
H       -0.66225468       2.44313916      -0.64384735
H        0.64322798       2.43503045       0.67728295
C       -1.78241447       0.00034974      -0.00472694
H       -2.45427497      -0.65498947       0.64260836
H       -2.43311707       0.67328779      -0.65473579
C       -0.91132561       0.90220522       0.91563759
C       -0.01476271      -0.02253852       1.78660255
H       -0.67934791      -0.69751639       2.42135241
H        0.63392994       0.61504881       2.47327442
C        0.01484550      -1.77751727      -0.01636693
H        0.67870853      -2.42144646      -0.68295456
H       -0.62264859      -2.45592969       0.64226336
C        1.78714474       0.01002794       0.00389507
H        2.44202412       0.67113390       0.66197326
H        2.45385902      -0.65136977      -0.64189061
C        0.91606151      -0.90478549       0.90901405
