109
Properties=species:S:1:pos:R:3 pbc="F F F"
C        0.00000000       0.00000000       0.00000000
C        0.88186046       0.88186046      -0.88186046
C        0.56742927       1.04655860      -2.22894525
C        1.37314106       1.85443657      -3.03426552
C        2.49276178       2.50389734      -2.49547838
C        3.37113422       3.36569626      -3.36943551
C        4.50566638       2.55730364      -4.00401940
C        5.38241582       3.42136533      -4.87839397
C        6.48832429       4.09030361      -4.33412111
C        7.28745530       4.90578939      -5.13773854
C        6.98063866       5.05958063      -6.48781841
Br       8.06181597       6.16403195      -7.57610956
C        5.88150030       4.40627935      -7.04138698
C        5.08271567       3.59068176      -6.23721050
C        2.80007893       2.32225095      -1.13946506
C        1.99516960       1.51446482      -0.33336324
H       -0.29894459       0.55344756      -2.66060856
H        1.12028261       1.97592190      -4.08571605
H        3.77659116       4.19212172      -2.77168079
H        2.75687378       3.83911181      -4.14610023
H        4.10064724       1.72966421      -4.60191234
H        5.12218998       2.08397284      -3.22795360
H        6.73427848       3.97839096      -3.28026669
H        8.14253587       5.41485970      -4.70209676
H        5.63783311       4.52542544      -8.09399717
H        4.22556117       3.08678964      -6.67815014
H        3.66822221       2.81111574      -0.70245943
H        2.24458004       1.38685672       0.71661360
C       -0.88186046      -0.88186046      -0.88186046
C       -0.37256387      -1.39983212      -2.07053713
C       -1.17883430      -2.20752928      -2.87547958
C       -2.49477207      -2.50403175      -2.49333368
C       -3.37022029      -3.36554692      -3.37049879
C       -4.15872708      -2.52786242      -4.38039991
C       -5.03305480      -3.39193303      -5.25718729
C       -6.34124841      -3.70834280      -4.86315780
C       -7.14324148      -4.52413771      -5.66360405
C       -6.63823419      -5.03095617      -6.85884734
Br      -7.72335155      -6.13601147      -7.94259446
C       -5.33834539      -4.73037197      -7.26044927
C       -4.53676055      -3.91428119      -6.45956620
C       -2.99507277      -1.96912466      -1.29759752
C       -2.18973347      -1.16119342      -0.49207077
H        0.64628232      -1.18275628      -2.37863757
H       -0.77260425      -2.60641447      -3.80290183
H       -4.05312124      -3.94826074      -2.73901168
H       -2.74728671      -4.10530915      -3.88948996
H       -3.47594691      -1.94393794      -5.01233894
H       -4.78373691      -1.78790380      -3.86247570
H       -6.74346120      -3.31933731      -3.93013763
H       -8.15559287      -4.75765167      -5.34624778
H       -4.94017562      -5.12560473      -8.19147538
H       -3.52262391      -3.68729333      -6.78058371
H       -4.01563050      -2.18061188      -0.98555500
H       -2.59101726      -0.75740718       0.43360128
C       -0.88186046       0.88186046       0.88186046
C       -1.89982639       1.63799377       0.30511296
C       -2.70690806       2.44270646       1.11222863
C       -2.50258871       2.49111989       2.49842890
C       -3.36611622       3.37166112       3.36848865
C       -2.77076671       4.77349084       3.52273186
C       -3.63674366       5.65264328       4.39278818
C       -3.44807778       5.68254656       5.78212468
C       -4.26193398       6.47963300       6.58941625
C       -5.27111011       7.24603712       6.01089046
Br      -6.37367191       8.32484372       7.10344184
C       -5.47458442       7.22186437       4.63271785
C       -4.66020291       6.42460549       3.82579954
C       -1.46917450       1.72975450       3.06286594
C       -0.66143750       0.92490682       2.25665334
H       -2.07359379       1.60832838      -0.76681064
H       -3.49868274       3.03083604       0.65240178
H       -3.49184133       2.89797447       4.35057787
H       -4.37452141       3.42863300       2.93893141
H       -2.64408261       5.24793522       2.54020595
H       -1.76203521       4.71826637       3.95381484
H       -2.66422249       5.08543843       6.24327521
H       -4.10131557       6.49447915       7.66369761
H       -6.26230185       7.81702965       4.17792423
H       -4.82844639       6.41075544       2.75129911
H       -1.28854415       1.75790624       4.13534699
H        0.13286316       0.33784199       2.70984434
C        0.88186046      -0.88186046       0.88186046
C        2.23850575      -1.01132638       0.59310100
C        3.04459463      -1.81637188       1.40087665
C        2.49899545      -2.49093626       2.50220579
C        3.36775213      -3.37189985       3.36661401
C        3.39106143      -4.81616896       2.85975902
C        4.26136255      -5.69524205       3.72557051
C        3.72074849      -6.35069701       4.84130352
C        4.52948587      -7.14731482       5.65418255
C        5.88328565      -7.28739746       5.35735459
Br       6.97879591      -8.36524500       6.45791657
C        6.43596270      -6.63738161       4.25582233
C        5.62659441      -5.84091684       3.44309669
C        1.13026192      -2.35616623       2.77536678
C        0.32329652      -1.55156255       1.96813858
H        2.67728273      -0.49200011      -0.25417131
H        4.10294880      -1.91241596       1.16655580
H        3.00445916      -3.33428969       4.40164482
H        4.38464299      -2.96003691       3.39740593
H        3.75396143      -4.85452268       1.82373968
H        2.37418542      -5.23026903       2.82966197
H        2.66515041      -6.24521009       5.08257564
H        4.09527675      -7.65110548       6.51311010
H        7.49231371      -6.74274209       4.02219993
H        6.06787768      -5.33575834       2.58686493
H        0.68476065      -2.87633906       3.62069767
H       -0.73494037      -1.45439434       2.19536920
