181
Properties=species:S:1:pos:R:3 pbc="F F F"
C        0.00000000       0.00000000       0.00000000
Cl      -1.16016185       7.66563575      -5.95995734
C        0.04169741       6.48698185      -5.60959662
C        0.15577588       5.35398062      -6.40959356
C        1.13177677       4.39497179      -6.12409492
C        2.01211362       4.55917819      -5.03887415
C        1.87826706       5.71334467      -4.24438820
C        0.89630489       6.66840096      -4.52655531
C        3.09013895       3.50363602      -4.78122533
H        2.79626730       2.53818842      -5.21185374
N        3.35823629       3.29166148      -3.35605259
C        2.51656839       2.50249470      -2.51709240
C        2.94191978       2.08383457      -1.24695220
C        2.13564032       1.27443970      -0.43555620
C        0.88070219       0.88070219      -0.88070219
C        0.42976833       1.28485213      -2.13082213
C        1.24639595       2.08189219      -2.94429321
C        4.53419594       3.91914903      -2.94923231
O        5.02242650       4.07346769      -1.84971832
C        5.22125566       4.41382627      -4.21770962
O        6.27270871       5.01619558      -4.29344162
C        4.41789023       3.93382811      -5.34893051
C        4.96026398       3.79880900      -6.57018043
O        6.23253497       4.21296314      -6.90028359
C        4.27298084       3.10905944      -7.66323732
C        4.38375412       1.71590166      -7.77898254
C        3.73063556       1.03867261      -8.81044569
C        2.96699920       1.75560739      -9.72912631
C        2.85901892       3.14263049      -9.63152691
C        3.51823021       3.82107809      -8.60327434
H       -0.51087759       5.21148409      -7.25683709
H        1.19666783       3.51549871      -6.76277709
H        2.52444082       5.88953156      -3.38634052
H        0.80532544       7.55012001      -3.89676792
H        3.92089939       2.34550198      -0.85443969
H        2.50611475       0.95902151       0.53666151
H       -0.55448617       0.98927445      -2.48595967
H        0.83624652       2.37138996      -3.90616001
H        6.63486044       4.68067002      -6.13635479
H        4.99729052       1.15289810      -7.07836732
H        3.83443686      -0.04008371      -8.89437592
H        2.27419996       3.70477423     -10.35522980
H        3.44335293       4.90407533      -8.53989750
C        2.28875049       1.05773601     -10.79051890
C        1.72071719       0.47326873     -11.67943519
Br       0.80225539      -0.47176543     -13.11673765
Cl      -9.23120348      -0.00717502      -3.22705274
C       -7.90956581      -1.10242106      -3.12628901
C       -7.83862687      -2.00840681      -2.07231640
C       -6.76356658      -2.89787605      -1.98940084
C       -5.74815392      -2.89865158      -2.96336046
C       -5.84164612      -1.97393268      -4.02042113
C       -6.91387562      -1.07933856      -4.09804699
C       -4.60657259      -3.91252338      -2.85590434
H       -4.48240395      -4.24593597      -1.81796954
N       -3.31893074      -3.37856911      -3.30845051
C       -2.50900688      -2.52142407      -2.50572454
C       -1.17111930      -2.26137037      -2.84021688
C       -0.35919741      -1.45320668      -2.03323212
C       -0.88070219      -0.88070219      -0.88070219
C       -2.20348751      -1.11473196      -0.52722312
C       -3.00664393      -1.93592013      -1.33001729
C       -2.98427006      -3.83712057      -4.58118664
O       -2.07945285      -3.53562589      -5.33053377
C       -4.00350602      -4.91530789      -4.93397763
O       -4.06096450      -5.56045816      -5.96092324
C       -4.85028497      -5.10122949      -3.74913439
C       -5.52446904      -6.24697075      -3.55781363
O       -5.59687754      -7.26442537      -4.48447879
C       -6.18607797      -6.56730330      -2.29189633
C       -5.45012013      -7.16810566      -1.26041252
C       -6.06102626      -7.47546149      -0.04326612
C       -7.41062343      -7.18355824       0.14244877
C       -8.15596974      -6.59712343      -0.88008316
C       -7.54621395      -6.29580947      -2.10055921
H       -8.61659923      -2.02808409      -1.31276027
H       -6.72958949      -3.59319570      -1.15215845
H       -5.08116662      -1.92169832      -4.79744796
H       -6.96432070      -0.36853492      -4.91935775
H       -0.70424606      -2.69712700      -3.71946800
H        0.67656948      -1.28656631      -2.31847792
H       -2.62454590      -0.66482401       0.36862197
H       -4.03275495      -2.07501287      -1.00602866
H       -5.15163978      -6.98603041      -5.31421507
H       -4.40159103      -7.41961886      -1.40734605
H       -5.48099731      -7.95112971       0.74339795
H       -9.21221990      -6.38072586      -0.74125823
H       -8.13485950      -5.85232792      -2.90013834
C       -8.04069693      -7.49546729       1.39915882
C       -8.56838348      -7.75669111       2.45165348
Br      -9.42160801      -8.17906793       4.15344833
Cl      -7.91380849       5.64048363      -1.08886089
C       -6.68163745       5.37581955       0.08081889
C       -5.57523522       6.21878682       0.12532804
C       -4.57273310       6.00294673       1.07516366
C       -4.66622228       4.94542907       1.99851461
C       -5.79465856       4.10650103       1.93484034
C       -6.79330141       4.31893558       0.97902418
C       -3.56473826       4.76451578       3.04574626
H       -2.62655732       5.21782884       2.70192330
N       -3.29166732       3.35839633       3.35588670
C       -2.50253186       2.51758659       2.51603704
C       -2.02316136       1.27929958       2.97024561
C       -1.21358400       0.46801969       2.16403252
C       -0.88070219       0.88070219       0.88070219
C       -1.34575101       2.09857247       0.40111910
C       -2.14270116       2.91273636       1.21714383
C       -3.86217313       2.97289269       4.56751145
O       -3.95905379       1.88715723       5.09940148
C       -4.37828740       4.24738860       5.22711555
O       -4.94567213       4.34016353       6.29651025
C       -3.96838166       5.36475667       4.36751051
C       -3.85897388       6.60895434       4.86132520
O       -4.23989116       6.97044001       6.13545053
C       -3.23411323       7.69981347       4.11135091
C       -1.84306645       7.86843433       4.16713754
C       -1.22726410       8.89858366       3.45390610
C       -2.00361228       9.76304496       2.68507567
C       -3.38909537       9.61286413       2.63121682
C       -4.00601748       8.58610046       3.35046469
H       -5.48724114       7.04565707      -0.57545462
H       -3.71538401       6.67409887       1.08546076
H       -5.91662612       3.26690945       2.61677734
H       -7.65413508       3.65563702       0.94244126
H       -2.23576421       0.91376944       3.97130741
H       -0.85011058      -0.47835740       2.55672157
H       -1.09810472       2.42777573      -0.60513250
H       -2.48130526       3.84824126       0.78424997
H       -4.66500919       6.20570874       6.58116732
H       -1.23367741       7.21087552       4.78400302
H       -0.14930098       9.02412111       3.51530698
H       -3.99745736      10.29455785       2.04218878
H       -5.08794812       8.48199507       3.31738257
C       -1.36916852      10.82289527       1.94494160
C       -0.83782188      11.71051991       1.32507932
Br       0.02132071      13.14573387       0.32281444
Cl       1.73823859      -1.17604131       9.55115134
C        2.45142153      -1.63225875       8.05459560
C        3.50265206      -0.88545192       7.53124610
C        4.08161248      -1.25528309       6.31394791
C        3.62216560      -2.38142441       5.60657594
C        2.55844632      -3.12172743       6.15582618
C        1.97498754      -2.74615010       7.37012352
C        4.30640122      -2.77373994       4.29485915
H        4.79985244      -1.90486312       3.84159390
N        3.37738294      -3.32445033       3.30411708
C        2.52140042      -2.50911696       2.50563812
C        1.86203698      -3.02933829       1.38133128
C        1.05266245      -2.22305081       0.56992295
C        0.88070219      -0.88070219       0.88070219
C        1.51543685      -0.33888649       1.99111925
C        2.33569678      -1.14636231       2.79052225
C        3.46562617      -4.71294582       3.22400528
O        2.79488070      -5.52636422       2.62436760
C        4.67580150      -5.11800168       4.05898837
O        5.09153290      -6.24301553       4.24779748
C        5.31077994      -3.87518335       4.51468556
C        6.60598818      -3.85385240       4.86941284
O        7.39755824      -4.97737002       4.97085343
C        7.33649545      -2.60679430       5.10198785
C        7.92301362      -1.93730517       4.01831953
C        8.61825888      -0.74324448       4.21825050
C        8.72916072      -0.21846778       5.50410440
C        8.16045589      -0.88131113       6.59140931
C        7.47053843      -2.07984494       6.39219927
H        3.87651710      -0.01528154       8.06564495
H        4.89944790      -0.65120303       5.92429269
H        2.15480926      -3.99643094       5.64907270
H        1.15001914      -3.32783836       7.77435588
H        1.97443501      -4.06715040       1.07925565
H        0.56962150      -2.65959148      -0.30073823
H        1.38119768       0.70895739       2.24850766
H        2.79808764      -0.66806942       3.64763943
H        6.85112274      -5.77940595       4.82135656
H        7.85966827      -2.35390806       3.01497961
H        9.07721610      -0.24097685       3.37053611
H        8.25731628      -0.47987729       7.59701042
H        7.04158599      -2.60088211       7.24485766
C        9.44169127       1.01567171       5.71098584
C       10.03843560       2.04926354       5.88424905
Br      11.00332072       3.72049410       6.16440100
