173
Properties=species:S:1:pos:R:3 pbc="F F F"
C        0.00000000       0.00000000       0.00000000
Cl      -1.16016185       7.66563575      -5.95995734
C        0.04169741       6.48698185      -5.60959662
C        0.15577588       5.35398062      -6.40959356
C        1.13177677       4.39497179      -6.12409492
C        2.01211362       4.55917819      -5.03887415
C        1.87826706       5.71334467      -4.24438820
C        0.89630489       6.66840096      -4.52655531
C        3.09013895       3.50363602      -4.78122533
H        2.79626730       2.53818842      -5.21185374
N        3.35823629       3.29166148      -3.35605259
C        2.51656839       2.50249470      -2.51709240
C        2.94191978       2.08383457      -1.24695220
C        2.13564032       1.27443970      -0.43555620
C        0.88070219       0.88070219      -0.88070219
C        0.42976833       1.28485213      -2.13082213
C        1.24639595       2.08189219      -2.94429321
C        4.53419594       3.91914903      -2.94923231
O        5.02242650       4.07346769      -1.84971832
C        5.22125566       4.41382627      -4.21770962
O        6.27270871       5.01619558      -4.29344162
C        4.41789023       3.93382811      -5.34893051
C        4.96026398       3.79880900      -6.57018043
O        6.23253497       4.21296314      -6.90028359
C        4.27298084       3.10905944      -7.66323732
C        4.38375412       1.71590166      -7.77898254
C        3.73063556       1.03867261      -8.81044569
C        2.96699920       1.75560739      -9.72912631
Br       2.07685416       0.83970923     -11.12211583
C        2.85901892       3.14263049      -9.63152691
C        3.51823021       3.82107809      -8.60327434
H       -0.51087759       5.21148409      -7.25683709
H        1.19666783       3.51549871      -6.76277709
H        2.52444082       5.88953156      -3.38634052
H        0.80532544       7.55012001      -3.89676792
H        3.92089939       2.34550198      -0.85443969
H        2.50611475       0.95902151       0.53666151
H       -0.55448617       0.98927445      -2.48595967
H        0.83624652       2.37138996      -3.90616001
H        6.63486044       4.68067002      -6.13635479
H        4.99729052       1.15289810      -7.07836732
H        3.83443686      -0.04008371      -8.89437592
H        2.27419996       3.70477423     -10.35522980
H        3.44335293       4.90407533      -8.53989750
Cl      -6.71874724       1.24826482      -6.99494882
C       -6.16083045      -0.01135074      -5.96609469
C       -6.84031499      -0.29407143      -4.78496364
C       -6.38610175      -1.31704088      -3.94770085
C       -5.25021805      -2.07641122      -4.28353668
C       -4.57982455      -1.77279901      -5.48337637
C       -5.03087103      -0.74394139      -6.31644875
C       -4.80610794      -3.21132707      -3.35756529
H       -5.16904757      -3.04105483      -2.33620706
N       -3.34992400      -3.36365730      -3.29236906
C       -2.51578909      -2.51780536      -2.50256104
C       -1.18105858      -2.85792125      -2.23372672
C       -0.36941519      -2.05143257      -1.42478844
C       -0.88070219      -0.88070219      -0.88070219
C       -2.19639085      -0.51458218      -1.13446955
C       -3.00807854      -1.33257269      -1.93193012
C       -2.90490999      -4.43982636      -4.05784092
O       -1.78704811      -4.80968726      -4.34887714
C       -4.15105894      -5.19680655      -4.50492606
O       -4.19300176      -6.19611488      -5.19322926
C       -5.29692878      -4.54471954      -3.85900054
C       -6.45031147      -5.20697226      -3.67196969
O       -6.70860248      -6.46474101      -4.17243821
C       -7.52915052      -4.68424693      -2.83188015
C       -7.50602345      -4.92249432      -1.45012055
C       -8.52202322      -4.42692174      -0.63080890
C       -9.56416076      -3.69354378      -1.19402837
Br     -10.93683174      -3.01633799      -0.08550949
C       -9.60448885      -3.46026066      -2.56842682
C       -8.59127236      -3.96207155      -3.38923872
H       -7.72404890       0.27709673      -4.51049141
H       -6.93309740      -1.51465731      -3.02718893
H       -3.69021108      -2.31980569      -5.79029614
H       -4.49511091      -0.52107301      -7.23602946
H       -0.73310580      -3.77087446      -2.61686081
H        0.65556865      -2.35588568      -1.22815772
H       -2.60457747       0.40419077      -0.72036124
H       -4.02375077      -0.98998995      -2.10005576
H       -5.95987385      -6.75388359      -4.73812781
H       -6.70712443      -5.51408190      -1.00734961
H       -8.49694350      -4.62876207       0.43697651
H      -10.42378940      -2.89936877      -3.01104581
H       -8.63469266      -3.79046713      -4.46216597
Cl      -9.33293766       2.91143361       0.22105997
C       -7.83933369       3.34417646       0.95476573
C       -7.08994009       4.39503494       0.43437504
C       -5.87500654       4.74606086       1.02977609
C       -5.39604052       4.05575363       2.15837180
C       -6.17149840       2.99709062       2.66741091
C       -7.38322823       2.64193202       2.06610091
C       -4.07853960       4.49406873       2.80239198
H       -3.44963100       5.02203425       2.07464421
N       -3.29794061       3.37357009       3.33443966
C       -2.50418279       2.52069074       2.51128196
C       -1.55477949       1.64995325       3.06797381
C       -0.74384341       0.83991011       2.26188268
C       -0.88070219       0.88070219       0.88070219
C       -1.81645362       1.72795327       0.30103570
C       -2.61442108       2.54684563       1.11131464
C       -3.40451083       3.27743580       4.72063065
O       -3.01328315       2.43342775       5.49890161
C       -4.13241677       4.53404620       5.18632858
O       -4.42545986       4.83011640       6.32676964
C       -4.32601562       5.37562252       3.99901071
C       -4.51145754       6.70057061       4.11722527
O       -4.67205315       7.35364494       5.32008360
C       -4.47350012       7.60498115       2.96679633
C       -3.24206063       8.11067478       2.52590291
C       -3.18388139       8.96929228       1.42658020
C       -4.35905862       9.32469613       0.76797816
Br      -4.28143020      10.48162802      -0.72437899
C       -5.59093111       8.83783396       1.20441126
C       -5.64979238       7.98399899       2.30879127
H       -7.44573782       4.94522926      -0.43352350
H       -5.30592228       5.56892968       0.60009167
H       -5.84717249       2.42099884       3.53214158
H       -7.96434829       1.81688189       2.47098318
H       -1.39080323       1.58949973       4.14053810
H       -0.00998060       0.18853167       2.72996249
H       -1.93781685       1.76187953      -0.77894844
H       -3.33163247       3.18118420       0.60097981
H       -4.70600841       6.69673747       6.04913937
H       -2.32322296       7.85525488       3.05007810
H       -2.22358326       9.36237162       1.10277420
H       -6.50999336       9.12461946       0.69959116
H       -6.61389245       7.61877167       2.65466164
Cl      -0.57449536      -8.78702646       4.25290015
C        0.40837280      -7.37957444       4.35032864
C        0.15930028      -6.42660615       5.33344365
C        0.95725547      -5.28166361       5.41192441
C        2.02006218      -5.07724264       4.51286114
C        2.25336615      -6.05502801       3.52760577
C        1.44941572      -7.19647514       3.44537030
C        2.89261225      -3.82774475       4.65464331
H        2.34432632      -3.03029062       5.17169252
N        3.34527977      -3.29351023       3.36716036
C        2.51366609      -2.50308270       2.51940671
C        3.05114908      -1.77421268       1.44734479
C        2.24509429      -0.96390119       0.63664073
C        0.88070219      -0.88070219       0.88070219
C        0.31892998      -1.59579462       1.93071799
C        1.13216218      -2.39287568       2.74754350
C        4.67381556      -3.62318980       3.10557192
O        5.35836812      -3.47134117       2.11590322
C        5.22603611      -4.24078531       4.38597013
O        6.34934607      -4.66337764       4.56962219
C        4.16676047      -4.13670271       5.39718567
C        4.46111705      -4.16074965       6.70738671
O        5.71785676      -4.41588181       7.21204312
C        3.47830189      -3.82724471       7.73973100
C        3.28738734      -2.48671344       8.10453754
C        2.35027593      -2.14731547       9.08216247
C        1.60403606      -3.14997063       9.69772621
Br       0.33037715      -2.69170142      11.01660064
C        1.79341334      -4.48774508       9.35201791
C        2.73612002      -4.82795236       8.37851026
H       -0.65337831      -6.56897222       6.04184968
H        0.73813605      -4.54939959       6.18740798
H        3.05479841      -5.94642818       2.79908632
H        1.64231766      -7.93701080       2.67288491
H        4.11391340      -1.78613708       1.22079058
H        2.70086622      -0.40342280      -0.17581428
H       -0.74951814      -1.54452137       2.12574472
H        0.63460728      -2.93282777       3.54636144
H        6.32653398      -4.64803298       6.47731829
H        3.88333669      -1.70120379       7.64401546
H        2.22079768      -1.10518261       9.36274878
H        1.22119742      -5.27228408       9.84072249
H        2.89097158      -5.87349898       8.12285520
