193
Properties=species:S:1:pos:R:3 pbc="F F F"
C        0.00000000       0.00000000       0.00000000
C        3.97403765       0.73862580       0.92407294
O        2.82481974       0.18457352       0.29263683
C        2.27513765       0.95263578      -0.70123340
C        3.03953720       1.74689105      -1.56254887
C        2.42231572       2.50435746      -2.56569438
C        1.03006789       2.47840006      -2.71477470
C        0.26783323       1.64843039      -1.88199814
C        0.88767209       0.88767209      -0.88767209
C        0.31454315       3.27603525      -3.75711410
O       -0.77327322       2.85752094      -4.13990688
N        0.96241516       4.44857065      -4.15216623
C        0.69319030       5.42789965      -5.09639697
S       -0.66516126       5.41929459      -6.08404829
N        1.71840172       6.28103595      -5.07850181
C        1.56165631       7.60253722      -5.64892178
S        2.83937522       8.68853354      -4.93413056
C        3.77215344       8.78497148      -6.48041242
C        3.29855401       7.56365612      -7.26842696
N        1.84715677       7.48630503      -7.07151709
H        1.51275436       6.55565982      -7.32108915
C        3.67924495       7.65330871      -8.73775050
C        2.85212419       8.28257484      -9.67856587
C        3.20385893       8.33603421     -11.03192694
C        4.40026774       7.76837919     -11.47762215
O        4.81701697       7.76824319     -12.78411508
C        3.89445654       8.23293897     -13.76019441
C        5.24511401       7.16226187     -10.53514289
C        4.89062318       7.10508054      -9.18157199
H        4.12145524       0.20963926       1.87065957
H        3.83967514       1.80155987       1.15409142
H        4.86625139       0.57958208       0.31090106
H        4.12219636       1.77810453      -1.49072085
H        3.04848368       3.08615518      -3.23846874
H       -0.81155886       1.60485575      -2.01520073
H        1.81044600       4.71416938      -3.67942252
H        0.58977619       8.07383313      -5.47466520
H        3.52841202       9.72793398      -6.98266756
H        4.84899134       8.76140796      -6.28799993
H        3.76458328       6.65425815      -6.86124820
H        1.90765449       8.72083976      -9.35561050
H        2.51023730       8.82615957     -11.70617719
H        4.34677313       8.08286501     -14.74529614
H        3.70611476       9.30487297     -13.64163164
H        2.96120707       7.66019616     -13.73397863
H        5.55064102       6.61828522      -8.46706828
C        6.49906244       6.56972564     -10.92258858
C        7.54924424       6.07347654     -11.24707434
Br       9.24729940       5.27108372     -11.77174038
C        0.51201658      -0.19036956      -4.11023753
O        0.56732154      -0.55005169      -2.73402627
C       -0.57223318      -1.12427535      -2.23249830
C       -1.39382639      -1.97138255      -2.98376818
C       -2.54192769      -2.53597992      -2.41445995
C       -2.88309957      -2.25443758      -1.08570549
C       -2.03672241      -1.44256402      -0.31897533
C       -0.88767209      -0.88767209      -0.88767209
C       -4.10286127      -2.81600583      -0.42882540
O       -4.08276386      -2.93355185       0.79216111
N       -5.15835888      -3.10979407      -1.29499908
C       -6.41360094      -3.67531099      -1.12857498
S       -7.01917257      -4.17507712       0.35606806
N       -6.96117247      -3.77607294      -2.34069407
C       -8.39261734      -3.95194870      -2.46854927
S       -8.88453963      -3.43236803      -4.14513166
C       -9.23183881      -5.12409680      -4.68160173
C       -8.45262830      -5.98803240      -3.68997639
N       -8.65420099      -5.38048551      -2.37029239
H       -7.94717805      -5.72262536      -1.71969992
C       -8.89689394      -7.44156248      -3.73184775
C       -9.95567120      -7.91387595      -2.94371776
C      -10.33771627      -9.25970721      -2.97439660
C       -9.67461318     -10.16734938      -3.80430652
O       -9.97788815     -11.50203201      -3.88945508
C      -10.91726494     -12.01556188      -2.95476310
C       -8.63265061      -9.69359828      -4.61626988
C       -8.24773464      -8.34758571      -4.58195536
H        1.32384519       0.51791751      -4.30219764
H       -0.43084525       0.30725705      -4.36355539
H        0.67652322      -1.06605590      -4.74539973
H       -1.15218199      -2.22854301      -4.01029673
H       -3.14132849      -3.21540388      -3.01637523
H       -2.28494079      -1.24595662       0.72239978
H       -5.06471658      -2.87098436      -2.26833697
H       -8.99803991      -3.38585263      -1.75438198
H      -10.31261994      -5.29730906      -4.62908456
H       -8.90407728      -5.28062020      -5.71370175
H       -7.38087506      -5.96287536      -3.93633920
H      -10.47885574      -7.22632038      -2.27892863
H      -11.15583962      -9.55840407      -2.32833036
H      -10.97564371     -13.09852713      -3.10076344
H      -11.91488066     -11.60237908      -3.13535964
H      -10.59422413     -11.83775576      -1.92340197
H       -7.42810752      -8.00066098      -5.20722602
C       -7.91555221     -10.57069885      -5.50512559
C       -7.31498230     -11.30527057      -6.24954225
Br      -6.34391155     -12.49301093      -7.45320102
C       -3.63984993       1.47666926      -1.32792867
O       -2.69122248       0.66710092      -0.64156697
C       -2.20626274       1.19601787       0.52672622
C       -2.98192531       1.97642198       1.39062983
C       -2.43382246       2.48303212       2.57551298
C       -1.09933629       2.21716345       2.90674291
C       -0.33516652       1.39828835       2.06480688
C       -0.88767209       0.88767209       0.88767209
C       -0.45582448       2.74217540       4.14969262
O        0.49052850       2.10872158       4.60596152
N       -0.99228616       3.93757849       4.63328738
C       -0.74499748       4.72422388       5.74826555
S        0.42607893       4.36652553       6.89773503
N       -1.62866493       5.72315414       5.72612041
C       -1.38567797       6.91311733       6.51432001
S       -2.37437721       8.27458939       5.81307272
C       -3.51803961       8.30591871       7.21357901
C       -3.34575948       6.92931169       7.85556592
N       -1.90570350       6.65092832       7.84834708
H       -1.74482894       5.65390875       7.99076565
C       -3.93824145       6.87716802       9.25489469
C       -3.19245546       7.23368960      10.38711985
C       -3.74320620       7.15735684      11.67125703
C       -5.06104274       6.73073798      11.85448836
O       -5.67526069       6.61865246      13.07546209
C       -4.86411740       6.79433196      14.22914056
C       -5.82074945       6.39988544      10.72188388
C       -5.26777680       6.47217087       9.43732805
H       -3.70633195       1.11150860      -2.35740561
H       -3.32736248       2.52626706      -1.36648595
H       -4.63104787       1.37875708      -0.87487254
H       -4.02514051       2.18795191       1.17792931
H       -3.07340178       3.05946179       3.24024404
H        0.69346419       1.16683073       2.33513109
H       -1.71072407       4.39580620       4.09750763
H       -0.34347384       7.24405526       6.55074541
H       -3.23072467       9.12119786       7.88709103
H       -4.54394819       8.47937296       6.87507808
H       -3.86093575       6.16907007       7.25008381
H       -2.15803799       7.55690219      10.26916457
H       -3.10476468       7.43520350      12.50260587
H       -5.48270305       6.58498776      15.10724347
H       -4.51524080       7.82902134      14.30835724
H       -4.02523908       6.09017145      14.23997134
H       -5.86653479       6.19774640       8.57171332
C       -7.18903381       5.96596310      10.83637974
C       -8.33497196       5.60255314      10.93227002
Br     -10.18785704       5.01494996      11.08731650
C        2.71260803      -2.68919354      -1.61321106
O        2.19282163      -1.51767233      -0.99373753
C        1.95298207      -1.62402285       0.35200191
C        2.75238593      -2.38507124       1.21151995
C        2.46296503      -2.44925762       2.58014492
C        1.36527995      -1.75458597       3.10337672
C        0.59109430      -0.95604208       2.25112537
C        0.88767209      -0.88767209       0.88767209
C        0.99895470      -1.79667075       4.55206705
O        0.37870209      -0.84016369       5.00528881
N        1.37833381      -2.96079977       5.22401844
C        1.29017029      -3.38639449       6.54092214
S        0.59477140      -2.47506976       7.76834047
N        1.89473970      -4.57339546       6.60980432
C        1.63182475      -5.44792978       7.73336078
S        2.06577017      -7.15006171       7.24620745
C        3.52163479      -7.19800351       8.31789904
C        3.83785635      -5.72363760       8.56914315
N        2.54915621      -5.06069462       8.79512807
H        2.65389921      -4.05236899       8.68323513
C        4.79593500      -5.53907922       9.73528995
C        4.33925803      -5.41878731      11.05521957
C        5.23120199      -5.22476132      12.11585677
C        6.60718661      -5.15607568      11.88300679
O        7.54847746      -4.96006015      12.86083762
C        7.07573625      -4.64766752      14.16418614
C        7.07123487      -5.30436252      10.56692138
C        6.17796915      -5.49407016       9.50523640
H        2.56468775      -2.58857914      -2.69283195
H        2.18296617      -3.59142182      -1.28724441
H        3.78788233      -2.77800276      -1.43095268
H        3.62266403      -2.92159213       0.84676558
H        3.12323528      -3.02434864       3.22552368
H       -0.24507022      -0.39253835       2.66102949
H        1.80094704      -3.70663155       4.69645932
H        0.59591826      -5.45707173       8.08528453
H        3.26595929      -7.73444286       9.23861141
H        4.34864089      -7.72121466       7.82854368
H        4.31384390      -5.28793411       7.67831161
H        3.26897451      -5.45621580      11.25891444
H        4.80745828      -5.12596738      13.10914840
H        7.94588037      -4.43593497      14.79311893
H        6.54833409      -5.50031671      14.60396858
H        6.44624729      -3.75135352      14.15778104
H        6.55424458      -5.59232439       8.48942555
C        8.47668529      -5.25784261      10.25684875
C        9.65375001      -5.21888218       9.99716293
Br      11.55696411      -5.15588647       9.57727292
