133
Properties=species:S:1:pos:R:3 pbc="F F F"
C        0.00000000       0.00000000       0.00000000
C        0.88164736       0.88164736      -0.88164736
C        1.62462630       1.90886643      -0.30803294
C        2.44199655       2.70809352      -1.11221997
C        2.51541148       2.49854855      -2.50140437
C        1.75864721       1.45097869      -3.05684523
C        0.94505027       0.64774570      -2.25246060
C        3.44628684       3.29521695      -3.40282727
H        3.08153522       3.29847883      -4.43662739
N        4.74250533       2.66804509      -3.39222313
C        5.68297808       3.44504283      -2.77818630
O        6.82862285       3.16086718      -2.48872337
C        5.06646349       4.76511518      -2.53518521
C        3.80025536       4.69313977      -2.96442480
C        2.75453773       5.73664897      -3.04916895
O        1.58252554       5.40684053      -3.21499633
C        3.07254917       7.18638758      -2.98127163
C        2.13416598       8.03210836      -2.37315072
C        2.35250159       9.41189541      -2.32216754
C        3.50763743       9.94764765      -2.88707091
Br       3.81174436      11.81166856      -2.81388272
C        4.43478772       9.11994586      -3.51822351
C        4.20821423       7.74062497      -3.58153279
O        5.75057730       5.79974257      -1.97542795
H        1.58117521       2.09445857       0.76199539
H        3.02069319       3.49369849      -0.63166366
H        1.80041638       1.24876379      -4.12554729
H        0.37028867      -0.15659756      -2.70350594
H        4.90478094       1.68534178      -3.56783687
H        1.22244850       7.61988898      -1.94371793
H        1.61529868      10.05465807      -1.84792213
H        5.33215936       9.53660671      -3.96942462
H        4.92864428       7.12056418      -4.10719667
H        6.64058594       5.44285047      -1.76856017
C       -0.88164736      -0.88164736      -0.88164736
C       -0.31411763      -1.93413338      -1.59327465
C       -1.12225728      -2.74977389      -2.39027886
C       -2.50515640      -2.51412904      -2.49607896
C       -3.05592583      -1.44716084      -1.76338445
C       -2.24920826      -0.63424019      -0.96180813
C       -3.43277811      -3.41958912      -3.29196383
H       -4.33589764      -2.88019413      -3.60054968
N       -3.83714617      -4.51560748      -2.45001990
C       -3.32282939      -5.70669713      -2.87668069
O       -3.36255228      -6.78948003      -2.32618108
C       -2.70408200      -5.46646652      -4.19621535
C       -2.83619252      -4.16064962      -4.46097778
C       -2.48309081      -3.38598470      -5.67128015
O       -2.43302731      -2.15967992      -5.61165517
C       -2.22258739      -4.03591802      -6.98170298
C       -1.26892372      -3.44675736      -7.82374398
C       -1.01461736      -3.98223602      -9.08971116
C       -1.72071679      -5.10431106      -9.51732814
Br      -1.37514642      -5.83725302     -11.22489620
C       -2.69045852      -5.68261550      -8.69988306
C       -2.95455895      -5.13708863      -7.43872441
O       -2.13487438      -6.46185087      -4.92902258
H        0.75254114      -2.13371777      -1.53246177
H       -0.65063362      -3.57247207      -2.92294965
H       -4.12401268      -1.24239126      -1.80832352
H       -2.69701827       0.18353793      -0.40371672
H       -4.22445852      -4.41199198      -1.52150909
H       -0.72534315      -2.56053432      -7.50017794
H       -0.27276698      -3.51375727      -9.73135463
H       -3.25071149      -6.55211894      -9.03536026
H       -3.73746390      -5.58523264      -6.83370860
H       -2.20817451      -7.26836827      -4.37545380
C       -0.88164736       0.88164736       0.88164736
C       -1.75343127       0.29455549       1.79353890
C       -2.55135552       1.10077725       2.61017726
C       -2.49713512       2.50331670       2.51491257
C       -1.60457311       3.07296670       1.58893132
C       -0.80227849       2.26739945       0.77557862
C       -3.29202446       3.41896843       3.43333816
H       -3.45230434       4.39783215       2.96650495
N       -2.53721391       3.62297267       4.64258697
C       -3.13671737       3.04461299       5.72487686
O       -2.70413005       2.92028756       6.85379578
C       -4.47651789       2.59691386       5.29333212
C       -4.58585648       2.88222383       3.98973962
C       -5.73464008       2.73734746       3.06836811
O       -5.54911210       2.79995457       1.85529572
C       -7.12615389       2.55712478       3.55692972
C       -7.98845147       1.76059055       2.79038304
C       -9.32311503       1.59280096       3.17064854
C       -9.79820680       2.22886040       4.31528879
Br     -11.59982482       1.99898090       4.83848992
C       -8.95753071       3.04498860       5.07043776
C       -7.62560229       3.22395614       4.68081357
O       -5.36330537       2.01594995       6.14649251
H       -1.81773758      -0.78674797       1.88264879
H       -3.21216962       0.61162862       3.32225710
H       -1.52386559       4.15448404       1.49637782
H       -0.11913864       2.72978490       0.06827352
H       -1.56988197       3.91678232       4.67129530
H       -7.62587815       1.27369834       1.88647891
H       -9.97956615       0.97273128       2.56558145
H       -9.32848795       3.55127082       5.95843192
H       -6.99924891       3.89054001       5.26661621
H       -4.89484091       1.95122531       7.00593035
C        0.88164736      -0.88164736       0.88164736
C        0.52917731      -1.10290592       2.20944243
C        1.32838783      -1.92026990       3.01365229
C        2.49694390      -2.51480470       2.50361579
C        2.82940360      -2.27988953       1.15717799
C        2.02770363      -1.46687230       0.35068064
C        3.35515661      -3.46895262       3.32022182
H        4.38356779      -3.49185449       2.94121916
N        2.80845181      -4.79559921       3.19872254
C        2.28453871      -5.24414107       4.37752743
O        1.64012973      -6.25356597       4.58451768
C        2.66989393      -4.27416933       5.42270061
C        3.34889511      -3.29193806       4.81698676
C        4.04313350      -2.11414598       5.38307618
O        4.37173505      -1.19110720       4.64152014
C        4.39923886      -2.01860719       6.82236234
C        4.37129990      -0.74985530       7.41826986
C        4.74354293      -0.58719476       8.75582685
C        5.15173168      -1.69409330       9.49653100
Br       5.64843178      -1.48115685      11.30770702
C        5.20950292      -2.95607940       8.90737476
C        4.85063487      -3.11538346       7.56435366
O        2.34714994      -4.44500207       6.73359581
H       -0.36587950      -0.65081453       2.62870337
H        1.01829134      -2.08463423       4.04312977
H        3.71798203      -2.73413504       0.72261038
H        2.30366541      -1.30062096      -0.68708930
H        2.59054589      -5.24707793       2.32033576
H        4.06765687       0.12080475       6.83920329
H        4.71734996       0.40296932       9.20349824
H        5.53795588      -3.82009580       9.48013900
H        4.93535998      -4.10232367       7.11872148
H        1.81620877      -5.26919520       6.76659261
