154
Properties=species:S:1:pos:R:3 pbc="F F F"
C        1.79155138       1.79155138      -1.79155138
C        2.53453032       2.81877045      -1.21793696
C        3.35190057       3.61799754      -2.02212399
C        3.42531551       3.40845257      -3.41130839
C        2.66855123       2.36088271      -3.96674926
C        1.85495429       1.55764973      -3.16236463
C        4.35619086       4.20512097      -4.31273129
H        3.99143924       4.20838285      -5.34653141
N        5.65240935       3.57794912      -4.30212716
C        6.59288211       4.35494685      -3.68809032
O        7.73852687       4.07077120      -3.39862739
C        5.97636751       5.67501920      -3.44508923
C        4.71015938       5.60304380      -3.87432882
C        3.66444176       6.64655300      -3.95907297
O        2.49242957       6.31674455      -4.12490035
C        3.98245320       8.09629160      -3.89117566
C        3.04407000       8.94201239      -3.28305475
C        3.26240562      10.32179943      -3.23207156
C        4.41754146      10.85755167      -3.79697493
Br       4.72164839      12.72157258      -3.72378675
C        5.34469174      10.02984988      -4.42812753
C        5.11811826       8.65052899      -4.49143682
O        6.66048133       6.70964660      -2.88533197
H        2.49107924       3.00436260      -0.14790863
H        3.93059722       4.40360252      -1.54156768
H        2.71032040       2.15866781      -5.03545131
H        1.28019270       0.75330647      -3.61340997
H        5.81468497       2.59524581      -4.47774089
H        2.13235252       8.52979300      -2.85362196
H        2.52520271      10.96456209      -2.75782615
H        6.24206338      10.44651073      -4.87932864
H        5.83854831       8.03046820      -5.01710069
H        7.55048996       6.35275449      -2.67846420
C       -1.79155138      -1.79155138      -1.79155138
C       -1.63197389      -3.17361303      -1.76565081
C       -2.44724798      -3.98234207      -2.56243205
C       -3.42228999      -3.41786414      -3.40492234
C       -3.56755844      -2.01876371      -3.40986105
C       -2.75619163      -1.20954678      -2.60923023
C       -4.37946057      -4.26231005      -4.23227250
H       -4.75189528      -3.69876111      -5.09569712
N       -5.50919590      -4.61244473      -3.41084499
C       -5.54906248      -5.94985813      -3.13699868
O       -6.28621494      -6.54552393      -2.37618660
C       -4.52149549      -6.59753300      -3.97744746
C       -3.90157166      -5.62639176      -4.65956859
C       -2.85918621      -5.70391568      -5.70696584
O       -2.23025857      -4.69297735      -6.01083855
C       -2.56593325      -6.96051746      -6.44346976
C       -1.24036263      -7.19136144      -6.83741306
C       -0.90920507      -8.33103029      -7.57604125
C       -1.90669535      -9.23752302      -7.92784970
Br      -1.46322455     -10.78420016      -8.91958301
C       -3.23240217      -9.00507589      -7.56519109
C       -3.56507231      -7.85660567      -6.83840608
O       -4.32579677      -7.94416993      -3.98549320
H       -0.88232728      -3.63378232      -1.12724087
H       -2.30700213      -5.05960374      -2.50916155
H       -4.32068254      -1.54608865      -4.03766833
H       -2.88733056      -0.13103373      -2.62854484
H       -6.05831223      -3.94984482      -2.87951463
H       -0.45964361      -6.47807877      -6.57804510
H        0.12286871      -8.49571660      -7.87474307
H       -4.01474104      -9.70553215      -7.84762957
H       -4.60919700      -7.68088199      -6.59603822
H       -4.95453813      -8.30342095      -3.32374957
C       -1.79155138       1.79155138       1.79155138
C       -2.65803118       1.20461966       2.70858689
C       -3.45591881       2.01090753       3.52519576
C       -3.40699833       3.41328356       3.42479457
C       -2.51972865       3.98279704       2.49365750
C       -1.71746145       3.17719071       1.68031649
C       -4.20187939       4.32937095       4.34279278
H       -4.36726749       5.30600523       3.87308079
N       -3.44353599       4.54031365       5.54863598
C       -4.03716876       3.96367715       6.63507337
O       -3.60016595       3.84487375       7.76288577
C       -5.37689001       3.50973189       6.20985405
C       -5.49183378       3.79003957       4.90565865
C       -6.64333941       3.63785348       3.98887484
O       -6.46231300       3.69682121       2.77494027
C       -8.03247526       3.45445503       4.48299017
C       -8.89464640       2.65217734       3.72231339
C      -10.22735859       2.48102908       4.10788895
C      -10.70065894       3.11945591       5.25195322
Br     -12.49959600       2.88507769       5.78233402
C       -9.86021856       3.94121075       6.00123984
C       -8.53031403       4.12349406       5.60627598
O       -6.25860198       2.92866729       7.06819063
H       -2.71819594       0.12341826       2.80173627
H       -4.11248263       1.52195468       4.24133010
H       -2.44317579       5.06425796       2.39700577
H       -1.03846060       3.63947634       0.96897219
H       -2.47715463       4.83763235       5.57288469
H       -8.53354204       2.16337102       2.81885441
H      -10.88374087       1.85651106       3.50733903
H      -10.22983144       4.44932096       6.88875035
H       -7.90426165       4.79435138       6.18750418
H       -5.78688367       2.86863680       7.92618818
C        1.79155138      -1.79155138       1.79155138
C        1.48502405      -1.94619815       3.14001554
C        2.28372821      -2.76333773       3.94495616
C        3.40642108      -3.42441939       3.41423600
C        3.69274529      -3.25605243       2.04738547
C        2.89129261      -2.44324080       1.24043523
C        4.25918966      -4.38004123       4.23481223
H        5.26964371      -4.45957465       3.81713516
N        3.65654073      -5.68707709       4.18886781
C        3.16389401      -6.06749384       5.40453143
O        2.48946707      -7.04099390       5.67746450
C        3.62909186      -5.07388344       6.39350065
C        4.32076732      -4.14453123       5.72223345
C        5.08298636      -2.97473301       6.21234836
O        5.41697837      -2.09553148       5.42156462
C        5.50082876      -2.83756216       7.63152954
C        5.54679119      -1.54639558       8.17595036
C        5.97923029      -1.34684419       9.49020213
C        6.37363094      -2.43962808      10.25880905
Br       6.95156755      -2.17642719      12.03901298
C        6.35799251      -3.72498965       9.71968699
C        5.93881596      -3.92194781       8.39932029
O        3.35352712      -5.18005516       7.72187762
H        0.62613118      -1.44201169       3.57520760
H        2.00959196      -2.87456930       4.99160616
H        4.54446300      -3.76272442       1.59725210
H        3.13108487      -2.32906041       0.18676385
H        3.38558520      -6.16331354       3.33877293
H        5.25411039      -0.68740806       7.57424903
H        6.01001110      -0.33968846       9.89789139
H        6.67544700      -4.57860012      10.31385563
H        5.96668304      -4.92818693       7.99124723
H        2.79254928      -5.98003903       7.80912034
C       -0.00445707       0.01189536      -1.78238275
H       -0.66409135       0.67374010      -2.43557963
H        0.65740317      -0.63156657      -2.45157240
C       -0.90989263      -0.90692880      -0.91072765
C        0.90977584       0.90977584      -0.90977584
C       -0.00465871       1.77757030       0.00794375
H       -0.66225468       2.44313916      -0.64384735
H        0.64322798       2.43503045       0.67728295
C       -1.78241447       0.00034974      -0.00472694
H       -2.45427497      -0.65498947       0.64260836
H       -2.43311707       0.67328779      -0.65473579
C       -0.91132561       0.90220522       0.91563759
C       -0.01476271      -0.02253852       1.78660255
H       -0.67934791      -0.69751639       2.42135241
H        0.63392994       0.61504881       2.47327442
C        0.01484550      -1.77751727      -0.01636693
H        0.67870853      -2.42144646      -0.68295456
H       -0.62264859      -2.45592969       0.64226336
C        1.78714474       0.01002794       0.00389507
H        2.44202412       0.67113390       0.66197326
H        2.45385902      -0.65136977      -0.64189061
C        0.91606151      -0.90478549       0.90901405
