162
Properties=species:S:1:pos:R:3 pbc="F F F"
C        1.79155138       1.79155138      -1.79155138
C        2.53453032       2.81877045      -1.21793696
C        3.35190057       3.61799754      -2.02212399
C        3.42531551       3.40845257      -3.41130839
C        2.66855123       2.36088271      -3.96674926
C        1.85495429       1.55764973      -3.16236463
C        4.35619086       4.20512097      -4.31273129
H        3.99143924       4.20838285      -5.34653141
N        5.65240935       3.57794912      -4.30212716
C        6.59288211       4.35494685      -3.68809032
O        7.73852687       4.07077120      -3.39862739
C        5.97636751       5.67501920      -3.44508923
C        4.71015938       5.60304380      -3.87432882
C        3.66444176       6.64655300      -3.95907297
O        2.49242957       6.31674455      -4.12490035
C        3.98245320       8.09629160      -3.89117566
C        3.04407000       8.94201239      -3.28305475
C        3.26240562      10.32179943      -3.23207156
C        4.41754146      10.85755167      -3.79697493
C        5.34469174      10.02984988      -4.42812753
C        5.11811826       8.65052899      -4.49143682
O        6.66048133       6.70964660      -2.88533197
H        2.49107924       3.00436260      -0.14790863
H        3.93059722       4.40360252      -1.54156768
H        2.71032040       2.15866781      -5.03545131
H        1.28019270       0.75330647      -3.61340997
H        5.81468497       2.59524581      -4.47774089
H        2.13235252       8.52979300      -2.85362196
H        2.52520271      10.96456209      -2.75782615
H        6.24206338      10.44651073      -4.87932864
H        5.83854831       8.03046820      -5.01710069
H        7.55048996       6.35275449      -2.67846420
C        4.64923187      12.27769616      -3.74121494
C        4.84327260      13.46706718      -3.69451594
Br       5.15702003      15.39017951      -3.61900761
C       -1.79155138      -1.79155138      -1.79155138
C       -2.20736065      -3.03590827      -1.32796881
C       -3.02508871      -3.83810706      -2.12882633
C       -3.42527774      -3.41151827      -3.40828046
C       -2.99589334      -2.14781975      -3.85247011
C       -2.18244703      -1.34259810      -3.04992351
C       -4.37316985      -4.21838475      -4.28248852
H       -4.23996859      -3.96553781      -5.34084711
N       -5.72648097      -3.89053622      -3.91546844
C       -6.36706639      -4.94287196      -3.32598093
O       -7.45727007      -4.96147641      -2.78917898
C       -5.49413359      -6.12470020      -3.47764216
C       -4.37911621      -5.71382388      -4.09459192
C       -3.21036183      -6.48224168      -4.57746421
O       -2.17498747      -5.88881884      -4.87026816
C       -3.25096790      -7.95579232      -4.76316024
C       -2.07343412      -8.67655039      -4.51915263
C       -2.03383285     -10.05883530      -4.72360846
C       -3.17159014     -10.72030542      -5.18017250
C       -4.34006069     -10.01052283      -5.45208563
C       -4.37425867      -8.62481321      -5.26101219
O       -5.85495722      -7.36135725      -3.03914542
H       -1.90752436      -3.39052591      -0.34530020
H       -3.34433377      -4.79923556      -1.73219809
H       -3.29670946      -1.77708546      -4.83064461
H       -1.86400124      -0.36938317      -3.41352472
H       -6.08979881      -2.94902624      -3.84884662
H       -1.17706055      -8.16185670      -4.17685023
H       -1.11323702     -10.60364239      -4.53071154
H       -5.22646029     -10.52269186      -5.81875060
H       -5.28564412      -8.08940245      -5.51107064
H       -6.72926416      -7.24173854      -2.61070595
C       -3.13684084     -12.14506090      -5.38624124
C       -3.10773830     -13.33829361      -5.55882380
Br      -3.06068196     -15.26764998      -5.83787521
C       -1.79155138       1.79155138       1.79155138
C       -2.68849619       1.20420439       2.67853715
C       -3.48660056       2.01010979       3.49531175
C       -3.40723879       3.41292069       3.42491699
C       -2.48957404       3.98271264       2.52389652
C       -1.68714563       3.17733186       1.71049114
C       -4.20221004       4.32646519       4.34536789
H       -4.33805495       5.31561597       3.89268260
N       -3.46482759       4.49724257       5.57041547
C       -4.09233109       3.91112017       6.63246802
O       -3.68121744       3.76050808       7.76619995
C       -5.43189537       3.49365194       6.17092863
C       -5.51417130       3.80261717       4.87074354
C       -6.64933429       3.69284360       3.92788983
O       -6.44210916       3.77261942       2.71934589
C       -8.05181014       3.52822043       4.38988989
C       -8.91414439       2.75948942       3.59550333
C      -10.25772970       2.60814265       3.95040426
C      -10.74154600       3.23292254       5.09759952
C       -9.90030383       4.02180209       5.88056323
C       -8.55910563       4.18452730       5.51645114
O       -6.34273444       2.91367254       6.99905291
H       -2.77244638       0.12281285       2.74809123
H       -4.16758313       1.52043037       4.18775392
H       -2.38916499       5.06409589       2.45117864
H       -0.98437421       3.63979469       1.02274023
H       -2.49333312       4.77397984       5.62035871
H       -8.54441956       2.28171507       2.68963285
H      -10.91407126       2.00960383       3.32391586
H      -10.27781336       4.51937089       6.77071850
H       -7.93174406       4.83040379       6.12396935
H       -5.89015554       2.82655321       7.86499990
C      -12.12349476       3.07456838       5.47007983
C      -13.28087685       2.94194677       5.78203210
Br     -15.15226579       2.72750884       6.28643252
C        1.79155138      -1.79155138       1.79155138
C        1.45372317      -1.99091376       3.12660081
C        2.25276389      -2.80820979       3.93104842
C        3.40670391      -3.42461912       3.41375344
C        3.72445732      -3.21158132       2.06014456
C        2.92284112      -2.39862824       1.25349927
C        4.26312517      -4.37929046       4.23162750
H        5.28608236      -4.42062240       3.83964876
N        3.69770587      -5.70010129       4.13467847
C        3.18355697      -6.12638769       5.32597463
O        2.52888309      -7.12448520       5.55455717
C        3.59516751      -5.14808717       6.35322127
C        4.27883420      -4.18280602       5.72589179
C        4.99567438      -3.00699570       6.26739765
O        5.32644782      -2.09805370       5.50957294
C        5.37187599      -2.89748166       7.70056281
C        5.36823394      -1.62084813       8.28005507
C        5.76010415      -1.44575565       9.61041681
C        6.16359892      -2.54822126      10.36024789
C        6.19724467      -3.81839467       9.78702981
C        5.81871888      -3.99037793       8.45098725
O        3.28749233      -5.29764228       7.67032529
H        0.57019469      -1.52169598       3.55145980
H        1.95411910      -2.95511470       4.96653362
H        4.60127939      -3.68306627       1.62009386
H        3.18727250      -2.24949557       0.21014106
H        3.46243476      -6.16003438       3.26520253
H        5.06832682      -0.75385790       7.69358276
H        5.75264526      -0.44960845      10.04533725
H        6.52196083      -4.67915025      10.36679167
H        5.88476856      -4.98404467       8.01730397
H        2.74638302      -6.11428824       7.72103739
C        6.56219746      -2.37309112      11.73285440
C        6.89602373      -2.22641962      12.88241236
Br       7.43579259      -1.98926422      14.74115034
C       -0.00445707       0.01189536      -1.78238275
H       -0.66409135       0.67374010      -2.43557963
H        0.65740317      -0.63156657      -2.45157240
C       -0.90989263      -0.90692880      -0.91072765
C        0.90977584       0.90977584      -0.90977584
C       -0.00465871       1.77757030       0.00794375
H       -0.66225468       2.44313916      -0.64384735
H        0.64322798       2.43503045       0.67728295
C       -1.78241447       0.00034974      -0.00472694
H       -2.45427497      -0.65498947       0.64260836
H       -2.43311707       0.67328779      -0.65473579
C       -0.91132561       0.90220522       0.91563759
C       -0.01476271      -0.02253852       1.78660255
H       -0.67934791      -0.69751639       2.42135241
H        0.63392994       0.61504881       2.47327442
C        0.01484550      -1.77751727      -0.01636693
H        0.67870853      -2.42144646      -0.68295456
H       -0.62264859      -2.45592969       0.64226336
C        1.78714474       0.01002794       0.00389507
H        2.44202412       0.67113390       0.66197326
H        2.45385902      -0.65136977      -0.64189061
C        0.91606151      -0.90478549       0.90901405
