186
Properties=species:S:1:pos:R:3 pbc="F F F"
O        1.54204285      -3.08344363      -3.21897568
C        2.57694488      -3.32484338      -2.58781527
N        3.31122442      -2.30302182      -2.03371572
N        2.83935429      -1.00456583      -2.25614582
C        3.66736092       0.07269609      -2.05003559
O        4.85333482      -0.04097956      -1.75180514
C        3.05896469       1.41020698      -2.27481141
C        3.82701741       2.33208105      -3.00645144
C        3.33216475       3.60888461      -3.28166702
C        2.07125398       3.98057211      -2.82329119
C        1.30758463       3.08017417      -2.08021525
C        1.79776828       1.79776828      -1.79776828
C        2.96073050      -4.75313713      -2.26474189
C        4.43752286      -5.06383189      -2.00089101
H        4.76767766      -4.39017638      -1.20003945
N        4.67767054      -6.38984064      -1.41857699
C        4.03021779      -7.52929970      -1.79497915
O        3.09735286      -7.61764074      -2.57513042
N        4.52766396      -8.62574229      -1.17165108
C        5.36810319      -4.85264100      -3.18298932
C        5.12550481      -5.45017411      -4.42948666
C        6.02324548      -5.28681626      -5.48774111
C        7.18224786      -4.53220999      -5.31493895
C        7.43825766      -3.94290941      -4.08069468
Br       9.02034682      -2.93783231      -3.83097796
C        6.54437591      -4.09891182      -3.01962031
H        4.27019261      -2.37440464      -1.70425595
H        1.87162796      -0.92651485      -2.57011065
H        4.81493790       2.05269995      -3.36950320
H        3.93288284       4.31361398      -3.85265778
H        1.68570805       4.97586032      -3.03389384
H        0.33235932       3.39454175      -1.71376772
H        2.37025700      -5.03439012      -1.38300136
H        2.58458030      -5.34963208      -3.10327671
H        5.62637966      -6.55858581      -1.11639607
H        4.85321439      -8.51538088      -0.22309180
H        3.97743189      -9.46027843      -1.33837322
H        4.24184013      -6.06875189      -4.58502449
H        5.82129543      -5.76005215      -6.44613388
H        7.87803076      -4.41752215      -6.14155663
H        6.77400138      -3.63867037      -2.06082437
O       -1.40988985       3.04607164      -3.31375669
C       -2.45228412       3.32204358      -2.70967624
N       -3.21923001       2.32751211      -2.15020042
N       -2.77034976       1.01518823      -2.33577275
C       -3.62496524      -0.04016129      -2.12496607
O       -4.81418393       0.10424201      -1.85421848
C       -3.04039338      -1.39439163      -2.30919807
C       -3.81244124      -2.31543095      -3.03767771
C       -3.33904198      -3.60769936      -3.27597505
C       -2.09598224      -3.99559682      -2.78353823
C       -1.32900480      -3.09569264      -2.04327662
C       -1.79776828      -1.79776828      -1.79776828
C       -2.81245882       4.76445184      -2.42432827
C       -4.28750535       5.11106864      -2.19814527
H       -4.64825677       4.46140946      -1.39069341
N       -4.51161435       6.45373643      -1.64852896
C       -3.83264637       7.57139371      -2.03464458
O       -2.88221583       7.62398449      -2.79661120
N       -4.31962899       8.69077304      -1.44471680
C       -5.19772412       4.89426127      -3.39498867
C       -4.91689386       5.46024294      -4.64816644
C       -5.79583600       5.29318087      -5.72151520
C       -6.97381224       4.56647890      -5.55764349
C       -7.26762148       4.00874476      -4.31716621
Br      -8.87536949       3.04203907      -4.08016204
C       -6.39274991       4.16859374      -3.24092824
H       -4.18307843       2.42561202      -1.84257750
H       -1.79820757       0.91056892      -2.62758512
H       -4.78654417      -2.02342680      -3.42717007
H       -3.94256693      -4.31175664      -3.84483103
H       -1.72724068      -5.00285309      -2.96536844
H       -0.36839931      -3.42233429      -1.64993519
H       -2.23451945       5.05198073      -1.53632953
H       -2.40658080       5.33523977      -3.26688391
H       -5.46259206       6.64836928      -1.36996714
H       -4.66695129       8.60718188      -0.50115591
H       -3.74859815       9.51006872      -1.61699725
H       -4.01735997       6.05702511      -4.79777786
H       -5.56420616       5.74183334      -6.68500434
H       -7.65464143       4.44877937      -6.39620318
H       -6.65177745       3.73351001      -2.27788795
O        2.75822411       3.76731367       0.66848534
C        3.21531170       3.32640066       1.72882781
N        2.38360026       2.75987732       2.66564126
N        1.01791763       2.74799639       2.36085552
C        0.09358522       2.52960341       3.35407441
O        0.39642957       2.42121597       4.53937399
C       -1.32786465       2.49554839       2.92057004
C       -2.24170029       3.20859926       3.71525034
C       -3.59657694       3.24795115       3.37818830
C       -4.05353970       2.57052489       2.25105269
C       -3.15859782       1.84418785       1.46518839
C       -1.79776828       1.79776828       1.79776828
C        4.71187008       3.24309474       1.94111060
C        5.23960109       3.23484574       3.37933733
H        4.73450047       2.41168639       3.90035480
N        6.65495963       2.86362953       3.49773698
C        7.63852042       3.28288968       2.65152798
O        7.49653766       3.92598439       1.62539581
N        8.86660569       2.87958852       3.06058992
C        4.97916268       4.50239556       4.17521864
C        5.35655503       5.76608082       3.69529157
C        5.15673215       6.91332854       4.46757394
C        4.58580756       6.81551368       5.73527071
C        4.21641798       5.56681206       6.22564884
Br       3.46360206       5.42283808       7.95425644
C        4.40990763       4.41642892       5.45856312
H        2.62098961       2.58296815       3.63806537
H        0.77510890       2.90760281       1.38272985
H       -1.89585148       3.74172334       4.59956622
H       -4.29513832       3.80646567       3.99755062
H       -5.10909796       2.59736867       1.98899558
H       -3.53671665       1.30517195       0.59878019
H        5.04056960       2.32797474       1.43146310
H        5.13005750       4.08698983       1.38129260
H        6.98273205       2.72421603       4.44270595
H        8.93510974       1.98127614       3.51475891
H        9.59307587       3.06878324       2.37981931
H        5.83088342       5.86942313       2.71957302
H        5.45852527       7.88445256       4.08144987
H        4.44171724       7.71247909       6.33130340
H        4.12439346       3.45050646       5.87004238
O       -1.92556672      -4.25597535      -0.65283373
C       -2.65293297      -4.15182687       0.34102287
N       -2.15112678      -3.66724921       1.52579589
N       -0.79028626      -3.34160137       1.53961917
C       -0.13250318      -3.18639703       2.73619875
O       -0.66069449      -3.40079314       3.82406175
C        1.30006939      -2.80081464       2.64309904
C        2.19076097      -3.49577913       3.47900980
C        3.55846664      -3.21399073       3.45025902
C        4.04907520      -2.23181747       2.59422462
C        3.17194019      -1.52267379       1.77336007
C        1.79776828      -1.79776828       1.79776828
C       -4.14363861      -4.38932606       0.22664781
C       -4.91067726      -4.79649998       1.48875926
H       -4.70382437      -4.03252225       2.24884285
N       -6.37066470      -4.72261677       1.35445481
C       -7.06706000      -5.11365535       0.24930188
O       -6.60281240      -5.47599568      -0.81834075
N       -8.40721479      -5.03986770       0.44091985
C       -4.52292024      -6.14093133       2.08044043
C       -4.51686794      -7.31306889       1.30861641
C       -4.20968038      -8.54793012       1.88592059
C       -3.91322623      -8.63307576       3.24512730
C       -3.92550030      -7.47906263       4.02248060
Br      -3.54822731      -7.58965001       5.87206976
C       -4.22825511      -6.24120987       3.45212964
H       -2.59342161      -3.75684160       2.43662392
H       -0.34561775      -3.23318504       0.62765649
H        1.81834781      -4.26564299       4.15315025
H        4.24017913      -3.76075985       4.09821563
H        5.11368232      -2.00874723       2.57303266
H        3.57072925      -0.74532290       1.12461664
H       -4.57008612      -3.45853304      -0.16957867
H       -4.25560505      -5.14885589      -0.55502591
H       -6.88626290      -4.85834162       2.21211121
H       -8.75458482      -4.29254743       1.02296271
H       -8.93830998      -5.20086689      -0.40703024
H       -4.77224133      -7.28071421       0.24963985
H       -4.21318495      -9.44697715       1.27358497
H       -3.68328299      -9.59900427       3.68634397
H       -4.24376711      -5.35572307       4.08419942
C       -0.00445707       0.01189536      -1.78238275
H       -0.66409135       0.67374010      -2.43557963
H        0.65740317      -0.63156657      -2.45157240
C       -0.90989263      -0.90692880      -0.91072765
C        0.90977584       0.90977584      -0.90977584
C       -0.00465871       1.77757030       0.00794375
H       -0.66225468       2.44313916      -0.64384735
H        0.64322798       2.43503045       0.67728295
C       -1.78241447       0.00034974      -0.00472694
H       -2.45427497      -0.65498947       0.64260836
H       -2.43311707       0.67328779      -0.65473579
C       -0.91132561       0.90220522       0.91563759
C       -0.01476271      -0.02253852       1.78660255
H       -0.67934791      -0.69751639       2.42135241
H        0.63392994       0.61504881       2.47327442
C        0.01484550      -1.77751727      -0.01636693
H        0.67870853      -2.42144646      -0.68295456
H       -0.62264859      -2.45592969       0.64226336
C        1.78714474       0.01002794       0.00389507
H        2.44202412       0.67113390       0.66197326
H        2.45385902      -0.65136977      -0.64189061
C        0.91606151      -0.90478549       0.90901405
