129
Properties=species:S:1:pos:R:3 pbc="F F F"
C        0.00000000       0.00000000       0.00000000
C        0.86716278       0.86716278      -0.86716278
C        0.41226609       1.83781368      -1.72966212
C        1.56351072       2.41126352      -2.32134076
C        2.65086270       1.74805379      -1.78786988
O        2.22548838       0.80086206      -0.90150990
C        4.12355098       1.87603945      -1.97031718
N        4.49934013       1.59693221      -3.35563395
C        4.45987139       0.20446641      -3.77334715
C        4.50239305       2.67641767      -4.24288890
O        4.15697564       3.79826500      -3.86714537
C        4.88016291       2.49017767      -5.63085197
N        4.40648730       3.36272370      -6.59108951
H        3.78209116       4.13042111      -6.38091161
C        4.93588597       3.08856378      -7.82681516
C        4.74075547       3.73066881      -9.05580684
C        5.45970512       3.24241681     -10.15002768
Br       5.25440258       4.08299506     -11.83438597
C        6.32877360       2.16073503     -10.02656948
C        6.50332414       1.53054765      -8.78716893
C        5.79299917       2.00404943      -7.66639158
C        5.75222345       1.63955271      -6.28873098
H       -0.61910606       2.10814695      -1.90619840
H        1.60480584       3.21490860      -3.04430342
H        4.66713443       1.18067514      -1.32040853
H        4.43940145       2.88639870      -1.68655608
H        4.25460951      -0.45016680      -2.92036429
H        5.42814955      -0.08525524      -4.18130426
H        3.67749187       0.06947235      -4.52637830
H        4.07064631       4.57872021      -9.14808790
H        6.88533290       1.79998786     -10.88752852
H        7.18969245       0.69391521      -8.69336919
H        6.35799315       0.86646365      -5.83840412
C       -0.86716278      -0.86716278      -0.86716278
C       -1.84589156      -0.41298357      -1.72086677
C       -2.39064494      -1.56167939      -2.34379067
C       -1.71446727      -2.64787955      -1.82443954
O       -0.78540904      -2.22411585      -0.91833544
C       -1.78761876      -4.11569749      -2.06659136
N       -3.10792447      -4.63354592      -1.71043589
C       -3.40304077      -4.74396761      -0.29067657
C       -4.08373974      -4.62739089      -2.71056900
O       -3.83759883      -4.16046925      -3.82431792
C       -5.41470140      -5.13991805      -2.44657310
N       -6.48333522      -4.68365890      -3.19330640
H       -6.39293357      -3.98304670      -3.91744361
C       -7.64312167      -5.34042016      -2.86772307
C       -8.93569730      -5.20306422      -3.38846960
C       -9.92076678      -6.05287376      -2.87850908
Br     -11.68375875      -5.92949968      -3.55852518
C       -9.63242950      -6.99240682      -1.89124180
C       -8.33223751      -7.10744779      -1.38135542
C       -7.31880337      -6.26505371      -1.87958310
C       -5.92221340      -6.13260783      -1.62568591
H       -2.12852436       0.61729615      -1.88401107
H       -3.17592876      -1.60134366      -3.08674543
H       -1.03704391      -4.65437715      -1.47679703
H       -1.56941313      -4.32242727      -3.12051583
H       -2.51509124      -4.51798267       0.30826691
H       -3.70409707      -5.76471846      -0.05538304
H       -4.20211420      -4.04455163      -0.02667668
H       -9.15636678      -4.47723123      -4.16385640
H      -10.41031015      -7.65009863      -1.51244050
H       -8.10975040      -7.84836426      -0.61886217
H       -5.35789456      -6.75692042      -0.94804594
C       -0.86716278       0.86716278       0.86716278
C       -1.42640391       2.06561068       0.48772731
C       -2.17249058       2.52307459       1.60054984
C       -2.01519480       1.57729524       2.59429633
O       -1.21371488       0.56634456       2.14780089
C       -2.54219110       1.44646770       3.98124881
N       -2.08088060       2.55448249       4.81654321
C       -0.68635017       2.52331093       5.22802386
C       -2.87512739       3.70383243       4.84273979
O       -3.89220962       3.77943760       4.15073878
C       -2.49960983       4.84225760       5.65932511
N       -2.94000142       6.10529379       5.31500531
H       -3.50646402       6.28960593       4.49735393
C       -2.56466069       7.04131077       6.24529345
C       -2.81562291       8.41807744       6.29353077
C       -2.33303360       9.11427025       7.40484576
Br      -2.65955956      10.97480480       7.53741925
C       -1.62807466       8.46939155       8.41861190
C       -1.38421712       7.09138697       8.34543664
C       -1.86192391       6.36416319       7.23735309
C       -1.82940975       4.98923935       6.86185804
H       -1.31992795       2.54853287      -0.47322154
H       -2.76137504       3.42743454       1.67520828
H       -2.21554272       0.50828154       4.44439383
H       -3.63750333       1.42091514       3.95393776
H       -0.21483949       1.58212910       4.92783840
H       -0.62123858       2.58894198       6.31401800
H       -0.14908735       3.35754070       4.76671446
H       -3.37279947       8.91691553       5.50773941
H       -1.26720610       9.02643868       9.27920450
H       -0.84291496       6.59090273       9.14315914
H       -1.40410605       4.19735377       7.46140110
C        0.86716278      -0.86716278       0.86716278
C        2.21193018      -1.08889276       0.67891895
C        2.62191582      -1.94449624       1.72970295
C        1.49787540      -2.19839034       2.49052063
O        0.42355314      -1.54308790       1.96121930
C        1.25099166      -2.99309026       3.72582569
N        1.54597450      -4.40717807       3.49875372
C        0.58725851      -5.15218873       2.69823772
C        2.85687809      -4.82877355       3.73604798
O        3.72337452      -4.02152880       4.07748269
C        3.23008629      -6.21836079       3.55274546
N        4.54362392      -6.54226210       3.27441449
H        5.27370050      -5.84982497       3.16989841
C        4.72793735      -7.90085514       3.22247241
C        5.89023080      -8.64653681       2.99046351
C        5.77390741     -10.03815614       3.04008606
Br       7.31541966     -11.10056204       2.75580192
C        4.55457593     -10.65827153       3.30323065
C        3.40355354      -9.89084046       3.52664672
C        3.49271888      -8.48540505       3.48531625
C        2.56386987      -7.42394242       3.69269484
H        2.82617011      -0.67950981      -0.11044064
H        3.61507588      -2.32854794       1.92039404
H        0.20805797      -2.90806012       4.05210000
H        1.87011367      -2.60134950       4.54089305
H       -0.29268734      -4.53942670       2.47806763
H        0.24560649      -6.02654571       3.25204635
H        1.05509191      -5.46008228       1.75816832
H        6.84076999      -8.16178696       2.79489746
H        4.48533394     -11.74204676       3.34546858
H        2.45701663     -10.37843567       3.74152454
H        1.52969697      -7.55751618       3.97564776
