150
Properties=species:S:1:pos:R:3 pbc="F F F"
C        1.77706680       1.77706680      -1.77706680
C        1.32217012       2.74771771      -2.63956614
C        2.47341475       3.32116754      -3.23124478
C        3.56076672       2.65795782      -2.69777390
O        3.13539240       1.71076608      -1.81141392
C        5.03345500       2.78594348      -2.88022120
N        5.40924416       2.50683624      -4.26553797
C        5.36977541       1.11437044      -4.68325118
C        5.41229707       3.58632169      -5.15279293
O        5.06687966       4.70816902      -4.77704939
C        5.79006693       3.40008169      -6.54075599
N        5.31639133       4.27262772      -7.50099354
H        4.69199518       5.04032513      -7.29081564
C        5.84578999       3.99846780      -8.73671918
C        5.65065949       4.64057284      -9.96571086
C        6.36960914       4.15232084     -11.05993170
Br       6.16430661       4.99289908     -12.74429000
C        7.23867763       3.07063906     -10.93647350
C        7.41322817       2.44045167      -9.69707296
C        6.70290320       2.91395345      -8.57629561
C        6.66212748       2.54945673      -7.19863500
H        0.29079796       3.01805097      -2.81610243
H        2.51470986       4.12481262      -3.95420745
H        5.57703845       2.09057916      -2.23031256
H        5.34930548       3.79630273      -2.59646010
H        5.16451354       0.45973722      -3.83026831
H        6.33805357       0.82464878      -5.09120828
H        4.58739589       0.97937637      -5.43628232
H        4.98055033       5.48862423     -10.05799192
H        7.79523692       2.70989188     -11.79743255
H        8.09959647       1.60381923      -9.60327321
H        7.26789717       1.77636767      -6.74830814
C       -1.77706680      -1.77706680      -1.77706680
C       -2.76038038      -1.32334370      -2.62572989
C       -3.30329101      -2.47175795      -3.25077812
C       -2.62148511      -3.55738642      -2.73762691
O       -1.69073574      -3.13353599      -1.83330068
C       -2.69034065      -5.02459451      -2.98468452
N       -4.00756081      -5.54833168      -2.62572587
C       -4.29729008      -5.66476918      -1.20533777
C       -4.98690511      -5.54210348      -3.62240309
O       -4.74632391      -5.07041587      -4.73535830
C       -6.31512407      -6.06023377      -3.35554678
N       -7.38797244      -5.60512224      -4.09691790
H       -7.30257699      -4.90166124      -4.81889772
C       -8.54429579      -6.26709844      -3.76958275
C       -9.83916965      -6.13246671      -4.28530683
C      -10.81945239      -6.98752053      -3.77488877
Br     -12.58524824      -6.86796738      -4.44828006
C      -10.52434979      -7.92948936      -2.79195103
C       -9.22197613      -8.04174151      -2.28703515
C       -8.21326179      -7.19404439      -2.78584607
C       -6.81626002      -7.05757585      -2.53638334
H       -3.04719668      -0.29349919      -2.78425549
H       -4.09104053      -2.51157986      -3.99110954
H       -1.93581058      -5.56269446      -2.39942513
H       -2.47512156      -5.22685808      -4.04008865
H       -3.40803627      -5.43776261      -0.60872019
H       -4.59393520      -6.68739196      -0.97258347
H       -5.09787726      -4.96909956      -0.93607776
H      -10.06511029      -5.40470018      -5.05735602
H      -11.29858151      -8.59123878      -2.41274106
H       -8.99421037      -8.78453973      -1.52793881
H       -6.24737424      -7.68227115      -1.86292759
C       -1.77706680       1.77706680       1.77706680
C       -1.69124290       3.14702094       1.87119013
C       -2.70115126       3.54436998       2.78030583
C       -3.33627439       2.38910929       3.19111476
O       -2.76895441       1.30758181       2.58103619
C       -4.47615026       2.11395780       4.10951162
N       -4.16188107       2.55048226       5.46925504
C       -3.22170509       1.72977250       6.21591944
C       -4.47926158       3.86992040       5.80222971
O       -4.96057888       4.63089166       4.96062754
C       -4.21736331       4.37837493       7.13516638
N       -4.03103360       5.73369728       7.32528170
H       -4.04822001       6.40566014       6.56925580
C       -3.88533603       6.04120270       8.65443824
C       -3.69730885       7.27996106       9.27967328
C       -3.62313246       7.28367717      10.67505205
Br      -3.39103996       8.93120073      11.57925499
C       -3.72597961       6.10670673      11.41310386
C       -3.90824256       4.87791033      10.76459990
C       -3.98936926       4.84533554       9.35844745
C       -4.19928959       3.81236823       8.39856139
H       -0.99528237       3.78472979       1.34493920
H       -2.94718215       4.54883308       3.09771470
H       -4.71461789       1.04453167       4.13878062
H       -5.37197967       2.62763587       3.74245276
H       -2.97502841       0.81984656       5.65964410
H       -3.67015863       1.42299932       7.16075269
H       -2.30484864       2.29790526       6.40030068
H       -3.62674297       8.19658118       8.70384234
H       -3.67366896       6.13050305      12.49838934
H       -3.99810326       3.96394539      11.34464027
H       -4.37775330       2.77451912       8.64030057
C        1.77706680      -1.77706680       1.77706680
C        3.13257451      -1.95478195       1.62209752
C        3.53737246      -2.82880352       2.65965110
C        2.40004296      -3.13681686       3.37963862
O        1.32248154      -2.49714619       2.83794467
C        2.14147821      -3.97410941       4.58403207
N        2.48414968      -5.37195292       4.32551577
C        1.57088673      -6.12017817       3.47633213
C        3.79956007      -5.76280957       4.58904205
O        4.63193382      -4.94156736       4.97859691
C        4.21842616      -7.13522802       4.37725044
N        5.54829264      -7.41327703       4.12844292
H        6.26043134      -6.69755575       4.06514886
C        5.77377085      -8.76396037       4.04324575
C        6.96356821      -9.46910405       3.82427092
C        6.88673607     -10.86432880       3.83079681
Br       8.46621195     -11.87359591       3.56168783
C        5.67911180     -11.52637819       4.04030020
C        4.50018309     -10.79893023       4.25163948
C        4.54923853      -9.39091777       4.25299596
C        3.58413219      -8.36288457       4.46320245
H        3.75678331      -1.50509588       0.86307217
H        4.53553167      -3.18983300       2.86836525
H        1.08762824      -3.92842884       4.88187309
H        2.72537578      -3.58895968       5.42773284
H        0.67998020      -5.52653992       3.24799895
H        1.23938309      -7.01977683       3.99475071
H        2.07413809      -6.38692033       2.54199616
H        7.90466920      -8.95194600       3.67055129
H        5.64050489     -12.61245844       4.04959803
H        3.56261432     -11.31938354       4.42469105
H        2.54668013      -8.53410520       4.71178766
C       -0.00445707       0.01189536      -1.78238275
H       -0.66409135       0.67374010      -2.43557963
H        0.65740317      -0.63156657      -2.45157240
C       -0.90989263      -0.90692880      -0.91072765
C        0.90977584       0.90977584      -0.90977584
C       -0.00465871       1.77757030       0.00794375
H       -0.66225468       2.44313916      -0.64384735
H        0.64322798       2.43503045       0.67728295
C       -1.78241447       0.00034974      -0.00472694
H       -2.45427497      -0.65498947       0.64260836
H       -2.43311707       0.67328779      -0.65473579
C       -0.91132561       0.90220522       0.91563759
C       -0.01476271      -0.02253852       1.78660255
H       -0.67934791      -0.69751639       2.42135241
H        0.63392994       0.61504881       2.47327442
C        0.01484550      -1.77751727      -0.01636693
H        0.67870853      -2.42144646      -0.68295456
H       -0.62264859      -2.45592969       0.64226336
C        1.78714474       0.01002794       0.00389507
H        2.44202412       0.67113390       0.66197326
H        2.45385902      -0.65136977      -0.64189061
C        0.91606151      -0.90478549       0.90901405
