138
Properties=species:S:1:pos:R:3 pbc="F F F"
O        7.54004089       4.34366368      -3.21134925
C        7.17594312       3.17727837      -3.18493207
N        5.93332140       2.76049394      -2.79588143
C        4.96265864       3.70897209      -2.30884680
C        3.61996886       3.06075584      -2.41713506
C        2.81107459       3.11723261      -3.54091582
S        1.35280266       2.24064590      -3.35266337
C        1.78163209       1.78163209      -1.78163209
C        2.99906100       2.27538285      -1.38481102
N        7.95540701       2.11391910      -3.55236683
C        9.26087798       2.35122460      -4.11838795
C        9.94034279       1.02768514      -4.27541758
C       10.31047278       0.46418244      -5.48570216
S       11.05061842      -1.07008670      -5.30315732
C       10.89098401      -0.99641943      -3.62048608
C       10.29752030       0.16012447      -3.18382350
H        5.89086428       1.82904019      -2.41371369
H        5.00855374       4.63282302      -2.89623489
H        5.20833421       3.95077828      -1.26947725
H        3.01462179       3.62721544      -4.47366647
H        3.43815033       2.08542113      -0.41246355
H        7.44485502       1.32280512      -3.91470095
H        9.83344482       3.01069891      -3.45795171
H        9.13145602       2.85551749      -5.08198866
H       10.17992789       0.87748981      -6.47725712
H       10.10849514       0.38845415      -2.14106311
C       11.33130805      -2.04672183      -2.73924852
C       11.70007943      -2.92635008      -2.00121207
Br      12.29635157      -4.34863457      -0.80786956
O       -6.35011141      -2.43966612      -6.30527630
C       -5.24096227      -1.93007444      -6.36711684
N       -4.38878074      -1.79422882      -5.30668721
C       -4.79558480      -2.20049746      -3.98439527
C       -3.55142752      -2.37268520      -3.17374704
C       -2.82624778      -3.55075581      -3.09221943
S       -1.43336360      -3.40490808      -2.10784024
C       -1.78163209      -1.78163209      -1.78163209
C       -2.92843444      -1.33900887      -2.39181157
N       -4.68132323      -1.42908536      -7.51128435
C       -5.36751317      -1.59349551      -8.76948184
C       -4.61485743      -0.82177828      -9.80680979
C       -3.97779804      -1.37888882     -10.90367052
S       -3.19503241      -0.20871829     -11.87993835
C       -3.69864366       1.04383043     -10.86023743
C       -4.45032944       0.60814789      -9.79928673
H       -3.74450272      -1.02177321      -5.36734224
H       -5.37125952      -3.13145381      -4.03489832
H       -5.44094931      -1.42033086      -3.56730958
H       -3.04538924      -4.49361952      -3.57649493
H       -3.30872235      -0.32852800      -2.29878467
H       -3.67364836      -1.46902949      -7.53968323
H       -6.39578269      -1.22858777      -8.67772499
H       -5.40040903      -2.66236121      -9.00619193
H       -3.92886045      -2.42336707     -11.18244730
H       -4.86141261       1.26173103      -9.03833082
C       -3.36554776       2.42663982     -11.08492680
C       -3.08657995       3.58474268     -11.27310416
Br      -2.63551259       5.45729707     -11.57737102
O       -7.58652351       4.13376626       3.37476406
C       -7.16593318       2.98629127       3.38592911
N       -5.92397583       2.61042474       2.95529620
C       -5.02664362       3.57858677       2.37524715
C       -3.64942321       3.00163726       2.44679930
C       -2.79153592       3.15318384       3.52450325
S       -1.30172390       2.33903899       3.30534904
C       -1.78163209       1.78163209       1.78163209
C       -3.03993752       2.19597875       1.42333860
N       -7.87247641       1.90666339       3.84255313
C       -9.15963929       2.10937237       4.46147887
C       -9.76341495       0.76440044       4.71563012
C      -10.04640170       0.24538452       5.96857116
S      -10.71637001      -1.32978363       5.89710267
C      -10.64135476      -1.33324309       4.20693899
C      -10.12836075      -0.17303722       3.68614475
H       -5.85308646       1.66403752       2.61649419
H       -5.09075885       4.52754152       2.91931128
H       -5.33362557       3.75580222       1.33916196
H       -2.97558894       3.69908517       4.44082958
H       -3.51495391       1.93658027       0.48450084
H       -7.30604499       1.16010661       4.21620950
H       -9.79558524       2.70665321       3.79985699
H       -9.00976369       2.66708389       5.39211459
H       -9.88949411       0.71378896       6.93139175
H      -10.00117514       0.01136809       2.62546916
C      -11.06999256      -2.44638629       3.40022847
C      -11.42897672      -3.37864371       2.72460841
Br     -12.00942375      -4.88602512       1.63218792
O        6.87130517      -2.53033408       5.69341458
C        5.86468180      -1.84959311       5.82387864
N        4.88310219      -1.72637788       4.88021670
C        5.01900046      -2.36622317       3.59525390
C        3.65146238      -2.44920687       2.99719051
C        2.77006393      -3.49915211       3.20000697
S        1.27275049      -3.27114127       2.40222018
C        1.78163209      -1.78163209       1.78163209
C        3.05903518      -1.44588645       2.15433323
N        5.56413520      -1.11718602       6.94037172
C        6.41044988      -1.21561973       8.10442091
C        5.94088918      -0.20252522       9.10003111
C        5.41425629      -0.49958039      10.34652070
S        4.95949085       0.89981672      11.22401492
C        5.46159457       1.90859887       9.96205495
C        5.97189556       1.22122921       8.89080194
H        4.36661303      -0.86147384       4.90553129
H        5.46438085      -3.36043199       3.71279881
H        5.69042108      -1.76041630       2.97775237
H        2.93299642      -4.39054228       3.79196499
H        3.55301085      -0.52943316       1.85359101
H        4.57731870      -0.99451035       7.11053204
H        7.45138202      -1.03214901       7.81856440
H        6.33534875      -2.23453871       8.49907471
H        5.26897916      -1.47613259      10.78956307
H        6.34311507       1.69345759       7.98835492
C        5.35770746       3.34404049      10.01016777
C        5.27070201       4.54622284      10.05046225
Br       5.13002154       6.49005002      10.11561503
C       -0.00445707       0.01189536      -1.78238275
H       -0.66409135       0.67374010      -2.43557963
H        0.65740317      -0.63156657      -2.45157240
C       -0.90989263      -0.90692880      -0.91072765
C        0.90977584       0.90977584      -0.90977584
C       -0.00465871       1.77757030       0.00794375
H       -0.66225468       2.44313916      -0.64384735
H        0.64322798       2.43503045       0.67728295
C       -1.78241447       0.00034974      -0.00472694
H       -2.45427497      -0.65498947       0.64260836
H       -2.43311707       0.67328779      -0.65473579
C       -0.91132561       0.90220522       0.91563759
C       -0.01476271      -0.02253852       1.78660255
H       -0.67934791      -0.69751639       2.42135241
H        0.63392994       0.61504881       2.47327442
C        0.01484550      -1.77751727      -0.01636693
H        0.67870853      -2.42144646      -0.68295456
H       -0.62264859      -2.45592969       0.64226336
C        1.78714474       0.01002794       0.00389507
H        2.44202412       0.67113390       0.66197326
H        2.45385902      -0.65136977      -0.64189061
C        0.91606151      -0.90478549       0.90901405
