117
Properties=species:S:1:pos:R:3 pbc="F F F"
C        0.00000000       0.00000000       0.00000000
O        6.63013687       3.43375965      -2.30144523
C        6.26603910       2.26737435      -2.27502804
N        5.02341738       1.85058992      -1.88597740
C        4.05275462       2.79906807      -1.39894277
C        2.71006484       2.15085181      -1.50723103
C        1.90117056       2.20732859      -2.63101179
S        0.44289863       1.33074188      -2.44275935
C        0.87172807       0.87172807      -0.87172807
C        2.08915698       1.36547883      -0.47490699
N        7.04550299       1.20401508      -2.64246280
C        8.35097396       1.44132058      -3.20848392
C        9.03043876       0.11778112      -3.36551355
C        9.40056875      -0.44572158      -4.57579814
S       10.14071440      -1.97999072      -4.39325330
C        9.98107999      -1.90632346      -2.71058205
C        9.38761628      -0.74977956      -2.27391948
H        4.98096026       0.91913617      -1.50380966
H        4.09864971       3.72291900      -1.98633086
H        4.29843019       3.04087426      -0.35957323
H        2.10471776       2.71731142      -3.56376244
H        2.52824631       1.17551710       0.49744047
H        6.53495100       0.41290110      -3.00479692
H        8.92354080       2.10079489      -2.54804769
H        8.22155200       1.94561346      -4.17208463
H        9.27002386      -0.03241421      -5.56735310
H        9.19859111      -0.52144987      -1.23115909
C       10.42140402      -2.95662585      -1.82934450
C       10.79017541      -3.83625411      -1.09130805
Br      11.38644754      -5.25853860       0.10203447
O       -6.63876119      -3.39997354      -2.32660702
C       -6.26573496      -2.23628820      -2.30641833
N       -5.02294771      -1.82615406      -1.91088292
C       -4.06358375      -2.77831149      -1.40887022
C       -2.71504391      -2.14144339      -1.51166039
C       -1.89788915      -2.21303934      -2.62858245
S       -0.43429124      -1.34638712      -2.43572150
C       -0.87172807      -0.87172807      -0.87172807
C       -2.09604953      -1.35285072      -0.48064255
N       -7.03394147      -1.16980706      -2.68823234
C       -8.33678671      -1.40137296      -3.26261879
C       -9.00459664      -0.07385471      -3.43528208
C       -9.36085322       0.48299542      -4.65278750
S      -10.09033099       2.02436888      -4.48801487
C       -9.94439125       1.96267220      -2.80361953
C       -9.36344429       0.80500437      -2.35331628
H       -4.97615776      -0.89208784      -1.53566049
H       -4.11215330      -3.70635961      -1.98938666
H       -4.31923837      -3.01002991      -0.36960940
H       -2.09816208      -2.72872791      -3.55890163
H       -2.54119452      -1.15184724       0.48671882
H       -6.51438794      -0.38556266      -3.05269842
H       -8.91963985      -2.05116250      -2.60158101
H       -8.20382588      -1.91420767      -4.22121655
H       -9.22583753       0.06091247      -5.64003770
H       -9.18434537       0.58340230      -1.30735726
C      -10.38330726       3.02325811      -1.93407352
C      -10.75089942       3.91149881      -1.20582874
Br     -11.34526485       5.34770889      -0.02831852
O       -1.52963290       5.41737906       5.41832979
C       -1.02664897       5.47580841       4.30598411
N       -0.88960202       4.41135435       3.45902833
C       -1.28608542       3.08912049       3.87555955
C       -1.46068136       2.27048821       2.63697812
C       -2.64233389       2.17822989       1.91894716
S       -2.49875825       1.18682021       0.53082139
C       -0.87172807       0.87172807       0.87172807
C       -0.42611862       1.49086885       2.01255533
N       -0.53530015       6.61959161       3.73708910
C       -0.70296402       7.88070711       4.41710732
C        0.05862277       8.91808532       3.65427088
C       -0.50826229      10.00817084       3.01421217
S        0.65194123      10.98656271       2.21935549
C        1.91305470       9.97679279       2.72160050
C        1.48762013       8.91767807       3.48169826
H       -0.12113983       4.47270823       2.81005804
H       -2.21405842       3.13764097       4.45620018
H       -0.49995162       2.68009056       4.51883549
H       -3.58667500       2.65842432       2.14069230
H        0.58699653       1.40568334       2.38763613
H       -0.58107425       6.64206220       2.72951257
H       -0.33176222       7.79682579       5.44379536
H       -1.77295015       8.11158097       4.45471898
H       -1.55456031      10.28078418       2.96961826
H        2.14780214       8.16275072       3.89335175
C        3.29267406      10.20737148       2.37942525
C        4.44810527      10.40048114       2.09285348
Br       6.31633981      10.71272313       1.62949116
O        1.69577088      -6.12553200       4.54403887
C        1.42999553      -6.02291587       3.35553009
N        1.21367034      -4.83849517       2.70781919
C        1.22000954      -3.59429330       3.43646262
C        1.42858752      -2.50036378       2.43919638
C        2.66969441      -2.03541311       2.03440342
S        2.56208990      -0.80040624       0.85390372
C        0.87172807      -0.87172807       0.87172807
C        0.37667030      -1.80206790       1.75080459
N        1.32046499      -7.07931287       2.49220300
C        1.64071975      -8.40886719       2.95119151
C        1.28389969      -9.36900775       1.86082599
C        2.18821699     -10.16530225       1.17712607
S        1.44239860     -11.13436542      -0.02278705
C       -0.08329319     -10.51037567       0.35825610
C       -0.05263459      -9.59002423       1.37436656
H        0.61005274      -4.89122147       1.90263188
H        2.01346465      -3.60232948       4.19210544
H        0.25838796      -3.49056758       3.94992213
H        3.64124244      -2.37297041       2.37157877
H       -0.68056180      -1.98935534       1.89752941
H        1.55280864      -6.86590993       1.53393045
H        1.07957990      -8.62704288       3.86576059
H        2.71000218      -8.44348339       3.18576453
H        3.25917996     -10.22570003       1.32008276
H       -0.92929818      -9.08017709       1.75742142
C       -1.28973541     -10.90536632      -0.32150824
C       -2.30013076     -11.23617099      -0.89081088
Br      -3.93385460     -11.77105417      -1.81132510
