109
Properties=species:S:1:pos:R:3 pbc="F F F"
C        0.00000000       0.00000000       0.00000000
O        6.63013687       3.43375965      -2.30144523
C        6.26603910       2.26737435      -2.27502804
N        5.02341738       1.85058992      -1.88597740
C        4.05275462       2.79906807      -1.39894277
C        2.71006484       2.15085181      -1.50723103
C        1.90117056       2.20732859      -2.63101179
S        0.44289863       1.33074188      -2.44275935
C        0.87172807       0.87172807      -0.87172807
C        2.08915698       1.36547883      -0.47490699
N        7.04550299       1.20401508      -2.64246280
C        8.35097396       1.44132058      -3.20848392
C        9.03043876       0.11778112      -3.36551355
C        9.40056875      -0.44572158      -4.57579814
S       10.14071440      -1.97999072      -4.39325330
C        9.98107999      -1.90632346      -2.71058205
Br      10.55371804      -3.27223371      -1.56453934
C        9.38761628      -0.74977956      -2.27391948
H        4.98096026       0.91913617      -1.50380966
H        4.09864971       3.72291900      -1.98633086
H        4.29843019       3.04087426      -0.35957323
H        2.10471776       2.71731142      -3.56376244
H        2.52824631       1.17551710       0.49744047
H        6.53495100       0.41290110      -3.00479692
H        8.92354080       2.10079489      -2.54804769
H        8.22155200       1.94561346      -4.17208463
H        9.27002386      -0.03241421      -5.56735310
H        9.19859111      -0.52144987      -1.23115909
O       -6.40482380      -4.04337124      -1.91714671
C       -6.19176416      -2.84925771      -1.76741962
N       -4.96875526      -2.30857767      -1.48265177
C       -3.82503217      -3.15949599      -1.26623730
C       -2.60570581      -2.31404489      -1.44839699
C       -1.96869990      -2.10893332      -2.66187772
S       -0.62172822      -1.06020343      -2.53446820
C       -0.87172807      -0.87172807      -0.87172807
C       -1.94570097      -1.58398488      -0.39985694
N       -7.14503945      -1.87293286      -1.87400855
C       -8.47828565      -2.22421988      -2.29827293
C       -9.33579714      -1.00474634      -2.17318995
C       -9.94687585      -0.35222362      -3.23154584
S      -10.84117031       1.02206669      -2.73487336
C      -10.42992656       0.75951192      -1.11492394
Br     -10.99806376       1.87075789       0.28128220
C       -9.63722790      -0.34413807      -0.93039023
H       -4.98960227      -1.43699713      -0.97730670
H       -3.83843658      -3.99807399      -1.97138900
H       -3.88388763      -3.56445814      -0.25053190
H       -2.23964823      -2.52059660      -3.62554679
H       -2.25888785      -1.58500642       0.63757133
H       -6.79732705      -0.97633201      -2.17898997
H       -8.86009781      -3.03853408      -1.67375149
H       -8.42776149      -2.57785100      -3.33363761
H       -9.91087143      -0.61287334      -4.28121798
H       -9.27079446      -0.67294514       0.03543928
O       -1.61709597       5.95234316       4.79590262
C       -1.28781699       5.90056814       3.62005636
N       -1.09995504       4.74335695       2.91667271
C       -1.21852387       3.46305663       3.56918496
C       -1.42851129       2.44056098       2.49907542
C       -2.66754511       2.07287646       1.99908937
S       -2.55944078       0.90132382       0.75563526
C       -0.87172807       0.87172807       0.87172807
C       -0.37834324       1.72085860       1.83034096
N       -1.06891091       6.99509588       2.82797407
C       -1.34114883       8.31360007       3.34602955
C       -0.86773788       9.31024618       2.33574938
C       -1.68441571      10.19531886       1.65091074
S       -0.81633060      11.18401648       0.55362990
C        0.64711796      10.45088713       0.98156941
Br       2.29165604      10.91956967       0.21811004
C        0.50538860       9.47879807       1.93834673
H       -0.44790390       4.80514441       2.15085778
H       -2.05348183       3.47578593       4.27863180
H       -0.29612765       3.27437053       4.12837950
H       -3.63698183       2.44784502       2.30096478
H        0.67718079       1.83700830       2.04649543
H       -1.25585683       6.84945616       1.84733603
H       -0.82364680       8.44703931       4.30169726
H       -2.41881495       8.39810256       3.52233259
H       -2.75691816      10.31071838       1.73732621
H        1.32818421       8.89760009       2.33888445
O        4.48823239      -1.71623444       6.16087492
C        3.29783065      -1.46405462       6.04655621
N        2.66228567      -1.24086939       4.85682963
C        3.40644210      -1.22235738       3.62196598
C        2.42564322      -1.42952141       2.51298306
C        2.04243012      -2.66960671       2.02747411
S        0.87618856      -2.56114275       0.77906855
C        0.87172807      -0.87172807       0.87172807
C        1.73277495      -0.37753635       1.81923150
N        2.42005291      -1.37869810       7.09322985
C        2.86640688      -1.70999142       8.42438016
C        1.75970014      -1.37900355       9.37502974
C        1.07760127      -2.30179834      10.15124569
S       -0.14366984      -1.58335554      11.11429127
C        0.22580372      -0.04524709      10.51428777
Br      -0.68435856       1.50592609      11.03630831
C        1.25364250      -0.05155651       9.60655719
H        1.84892832      -0.64807642       4.90690136
H        4.17190580      -2.00634588       3.62964789
H        3.90894772      -0.25315889       3.53677106
H        2.38762839      -3.64105924       2.35710399
H        1.86375735       0.67899203       2.02155763
H        1.46753889      -1.62027942       6.86483071
H        3.77100394      -1.14027242       8.66110701
H        3.11404150      -2.77661146       8.44859713
H        1.23333315      -3.37156979      10.20005981
H        1.63191425       0.83620711       9.11259319
