194
Properties=species:S:1:pos:R:3 pbc="F F F"
C        0.42059995       1.09377674      -5.06549228
O        0.87990501       0.81015100      -3.74871698
C        1.74183683       1.72044345      -3.19642687
C        2.58690845       2.54006590      -3.94834576
C        3.44691723       3.44461074      -3.31321862
C        3.48602170       3.54590003      -1.91513417
C        2.65488777       2.70501452      -1.16364993
C        1.79766274       1.79766274      -1.79766274
C        4.35372942       4.50583163      -1.23617558
O        5.14055121       5.29230010      -2.04116313
C        5.79949902       6.10323083      -1.16819651
C        6.71349842       7.09888464      -1.47150599
C        7.23101688       7.80455114      -0.37419393
C        6.84891605       7.51631151       0.94561397
N        7.33248670       8.22141793       2.07127484
C        8.24652478       9.25793945       2.08975998
O        8.80474281       9.74308154       1.11198818
C        8.53092635       9.87891001       3.41914900
C        8.82743517      11.25605133       3.39985852
C        9.11028184      11.93800519       4.58193827
C        9.10821600      11.26599935       5.79917926
C        8.82685279       9.89919365       5.83032386
C        8.54213653       9.20126224       4.64747901
Cl       8.25488224       7.50464376       4.80916603
C        5.92447628       6.48315555       1.19734217
C        5.39239974       5.77285997       0.11112263
N        4.47735808       4.75028516       0.05774199
H       -0.41789663       0.42361988      -5.27818630
H        1.20253455       0.89190825      -5.80410289
H        0.05472635       2.12303788      -5.15008123
H        2.60997166       2.49109889      -5.03251789
H        4.08830558       4.07267848      -3.92951174
H        2.67435049       2.76352808      -0.07636789
H        7.00339617       7.32412618      -2.49001349
H        7.94336361       8.59505875      -0.59497648
H        6.97360740       7.91159125       2.96767608
H        8.83503576      11.79399417       2.45219337
H        9.33118731      11.79145541       6.72478887
H        8.84084174       9.37912811       6.78653053
H        5.60495603       6.22653827       2.20064670
C        9.40668176      13.34664119       4.54331554
C        9.65491670      14.52637383       4.51096901
Br      10.05629160      16.43390174       4.45866741
C       -2.33888967      -4.62739076       0.38641146
O       -1.60990810      -3.58199792      -0.24686698
C       -2.12506404      -3.10890494      -1.42473817
C       -2.92047245      -3.87216597      -2.28268169
C       -3.40769058      -3.32217725      -3.47487875
C       -3.10660078      -2.00178681      -3.83866830
C       -2.28841453      -1.24734557      -2.98779212
C       -1.79766274      -1.79766274      -1.79766274
C       -3.63190017      -1.40102789      -5.06280857
O       -4.42342722      -2.20494085      -5.84564637
C       -4.80003182      -1.39645614      -6.87443840
C       -5.62120984      -1.72096429      -7.94171493
C       -5.86727298      -0.68564756      -8.85684142
C       -5.31312345       0.59486765      -8.70135779
N       -5.55806479       1.66603004      -9.59059504
C       -6.32830132       1.65167359     -10.73807651
O       -6.93438606       0.68483365     -11.18628376
C       -6.48055945       2.95088352     -11.46101142
C       -7.71242458       3.14521094     -12.11641434
C       -7.96297700       4.31991528     -12.82328704
C       -6.99649750       5.31690221     -12.89544081
C       -5.76778721       5.13169046     -12.25962582
C       -5.50288093       3.95336983     -11.54640865
Cl      -3.93030926       3.82151438     -10.84156510
C       -4.47335141       0.86593237      -7.60287062
C       -4.22299131      -0.15594840      -6.67519737
N       -3.47570744      -0.17101630      -5.52317751
H       -1.94950310      -4.73751644       1.40310999
H       -2.18730038      -5.57920078      -0.13204454
H       -3.40470168      -4.38500946       0.46186569
H       -3.17024464      -4.90456202      -2.05878179
H       -4.02964441      -3.94290886      -4.11794253
H       -2.03762506      -0.22178408      -3.25483732
H       -6.05254265      -2.70717067      -8.05782253
H       -6.51655204      -0.92083358      -9.69601322
H       -5.09611138       2.53889108      -9.36030226
H       -8.47740901       2.37051810     -12.06994565
H       -7.18437249       6.23449648     -13.44797785
H       -5.01256169       5.91222291     -12.33310054
H       -4.02318114       1.83939887      -7.44706534
C       -9.22972561       4.50290206     -13.48318386
C      -10.29062756       4.65615349     -14.03584745
Br     -12.00601629       4.90394809     -14.92945774
C       -2.28760534       4.65487276      -0.36260913
O       -1.57584130       3.59565634       0.26727535
C       -2.10785981       3.11592566       1.43492167
C       -2.90423785       3.87855397       2.29252829
C       -3.40925086       3.32150276       3.47399296
C       -3.12536171       1.99445586       3.82723832
C       -2.30619113       1.24034047       2.97702062
C       -1.79766274       1.79766274       1.79766274
C       -3.66929668       1.38670618       5.03973377
O       -4.46060845       2.19070623       5.82269975
C       -4.85596966       1.37571149       6.83924522
C       -5.68472869       1.69776830       7.90139207
C       -5.95070131       0.65577993       8.80328072
C       -5.40803706      -0.62871449       8.64029102
N       -5.67298656      -1.70629295       9.51593618
C       -6.45478846      -1.69569474      10.65561053
O       -7.05558127      -0.72728662      11.10754153
C       -6.62767512      -3.00055775      11.36356999
C       -7.86812327      -3.18887241      12.00437712
C       -8.13786244      -4.36806936      12.69655569
C       -7.18236660      -5.37561788      12.76828738
C       -5.94536697      -5.19658475      12.14694036
C       -5.66117347      -4.01385487      11.44860116
Cl      -4.08018177      -3.89100396      10.76118217
C       -4.55982160      -0.89720707       7.54767513
C       -4.28956020       0.13143021       6.63314668
N       -3.53036263       0.15053530       5.48900332
H       -1.88669135       4.77132712      -1.37410892
H       -2.13167811       5.59975185       0.16711574
H       -3.35499599       4.42423696      -0.45138750
H       -3.14118172       4.91568630       2.07672043
H       -4.03143405       3.94201977       4.11704198
H       -2.06860394       0.20959266       3.23604986
H       -6.10717807       2.68712307       8.02323470
H       -6.60614385       0.88907769       9.63817730
H       -5.21759345      -2.58146744       9.28139655
H       -8.62467018      -2.40592665      11.95809303
H       -7.38523360      -6.29680586      13.30942611
H       -5.19891487      -5.98554394      12.22006838
H       -4.11799918      -1.87361309       7.38646150
C       -9.41312125      -4.54473181      13.34161797
C      -10.48115050      -4.69268661      13.88185763
Br     -12.20806347      -4.93191700      14.75537947
C       -0.39986772      -2.36866194       4.61107475
O        0.23523643      -1.62972819       3.57380838
C        1.41893661      -2.13507232       3.10469822
C        2.27706830      -2.92991888       3.86833293
C        3.47538278      -3.40678327       3.32258052
C        3.84518513      -3.09568386       2.00618689
C        2.99393262      -2.27807095       1.25154866
C        1.79766274      -1.79766274       1.79766274
C        5.07596923      -3.61013655       1.40963086
O        5.85873398      -4.40178884       2.21349162
C        6.89452106      -4.76747136       1.40893396
C        7.96473016      -5.58423320       1.73492570
C        8.88742133      -5.81870069       0.70363994
C        8.73622514      -5.25786314      -0.57447469
N        9.63323357      -5.49114864      -1.64175243
C       10.78517803      -6.25464819      -1.62512197
O       11.23125447      -6.86381698      -0.65923528
C       11.51668834      -6.39488005      -2.92088104
C       12.18055745      -7.62166279      -3.11859226
C       12.89585437      -7.86102231      -4.29052791
C       12.96815216      -6.88821032      -5.28132638
C       12.32394306      -5.66441200      -5.09263249
C       11.60219498      -5.41075825      -3.91703347
Cl      10.88722726      -3.84320161      -3.78006889
C        7.63437923      -4.42301113      -0.84710071
C        6.69919572      -4.18424110       0.17070027
N        5.54267552      -3.44389557       0.18333016
H       -1.41950221      -1.98596600       4.71744576
H        0.11203035      -2.21967789       5.56683746
H       -0.46753462      -3.43343926       4.36194081
H        2.04855044      -3.18715843       4.89787958
H        4.11845306      -4.02860481       3.94343793
H        3.26554771      -2.01959938       0.22909937
H        8.07756294      -6.02073828       2.71923462
H        9.72903867      -6.46438836       0.93997181
H        9.40536600      -5.02537547      -2.51321891
H       12.13405990      -8.39151045      -2.34873379
H       13.52722288      -7.06734025      -6.19670927
H       12.39753841      -4.90412819      -5.86822728
H        7.48166251      -3.96798024      -1.81879515
C       13.56435787      -9.12272824      -4.47707871
C       14.12422956     -10.17940696      -4.63331500
Br      15.02949473     -11.88796708      -4.88593587
C       -0.00445707       0.01189536      -1.78238275
H       -0.66409135       0.67374010      -2.43557963
H        0.65740317      -0.63156657      -2.45157240
C       -0.90989263      -0.90692880      -0.91072765
C        0.90977584       0.90977584      -0.90977584
C       -0.00465871       1.77757030       0.00794375
H       -0.66225468       2.44313916      -0.64384735
H        0.64322798       2.43503045       0.67728295
C       -1.78241447       0.00034974      -0.00472694
H       -2.45427497      -0.65498947       0.64260836
H       -2.43311707       0.67328779      -0.65473579
C       -0.91132561       0.90220522       0.91563759
C       -0.01476271      -0.02253852       1.78660255
H       -0.67934791      -0.69751639       2.42135241
H        0.63392994       0.61504881       2.47327442
C        0.01484550      -1.77751727      -0.01636693
H        0.67870853      -2.42144646      -0.68295456
H       -0.62264859      -2.45592969       0.64226336
C        1.78714474       0.01002794       0.00389507
H        2.44202412       0.67113390       0.66197326
H        2.45385902      -0.65136977      -0.64189061
C        0.91606151      -0.90478549       0.90901405
