153
Properties=species:S:1:pos:R:3 pbc="F F F"
C        0.00000000       0.00000000       0.00000000
C        0.88133435       0.88133435      -0.88133435
C        1.79374813       0.30131950      -1.75360576
C        2.62427231       1.11773922      -2.53148428
C        2.57297886       2.52655994      -2.46833299
C        1.60234013       3.06775100      -1.59661496
C        0.77562600       2.26382055      -0.80342045
C        3.59524279       3.45094486      -3.30792256
C        3.88463813       4.88348298      -2.70352384
C        5.35607693       4.71331269      -3.10697907
C        5.13003507       3.19305803      -3.06536482
N        3.23584821       3.57390650      -4.75448876
C        3.51344291       2.62140684      -5.71684403
O        4.07785323       1.55559357      -5.48887356
C        3.13995134       3.03651601      -7.14176564
N        1.69948083       3.24403853      -7.28321405
C        0.89543956       2.17715018      -7.65988281
C       -0.43352345       2.31326720      -7.78846444
Br      -1.53810164       0.90013106      -8.28739982
C       -1.03912812       3.60106311      -7.53606920
C       -0.29416006       4.64887410      -7.15656052
C        1.17268649       4.49370979      -6.97651265
O        1.84001991       5.42740671      -6.53604336
H        1.88151710      -0.77892546      -1.83142877
H        3.34368930       0.64359604      -3.19932649
H        1.50076330       4.14814561      -1.51202727
H        0.06674732       2.73036549      -0.12475121
H        3.75281214       4.96131510      -1.61721614
H        3.36452075       5.72497185      -3.17181612
H        5.58979426       5.10125480      -4.10453679
H        6.08829290       5.10215433      -2.39490082
H        5.67889661       2.63103026      -3.82478173
H        5.35594224       2.74781823      -2.08800181
H        2.81009319       4.44024493      -5.08463353
H        3.47547765       2.26556738      -7.84466294
H        3.67846782       3.95986680      -7.38550721
H        1.39042328       1.22604483      -7.83964849
H       -2.11261670       3.70920306      -7.65403228
H       -0.71360427       5.62489144      -6.95145704
C       -0.88133435      -0.88133435      -0.88133435
C       -0.65150541      -0.94740885      -2.24975912
C       -1.48797253      -1.72948190      -3.05604137
C       -2.57056401      -2.46662858      -2.53067920
C       -2.73836061      -2.39842020      -1.12992528
C       -1.91854599      -1.61009538      -0.31422563
C       -3.57557248      -3.29403921      -3.48449852
C       -5.03595952      -3.51612849      -2.91955694
C       -5.57885290      -3.26421474      -4.33330106
C       -4.29206490      -2.47392401      -4.62246902
N       -3.01116209      -4.59590490      -3.95717647
C       -2.11740849      -4.73152048      -5.00276481
O       -1.67382561      -3.79210666      -5.65638809
C       -1.77834287      -6.18074000      -5.35915013
N       -1.10677464      -6.86488099      -4.25507777
C        0.27881686      -6.83109058      -4.18019884
C        0.94061714      -7.43055682      -3.17826852
Br       2.79752432      -7.39849709      -3.04845647
C        0.19389551      -8.13263586      -2.15926385
C       -1.14557014      -8.17272462      -2.19297980
C       -1.88443181      -7.47886374      -3.27961337
O       -3.11268904      -7.43429545      -3.25648549
H        0.16155061      -0.38942800      -2.70614302
H       -1.30012378      -1.75697438      -4.12951368
H       -3.54615596      -2.95566899      -0.65911122
H       -2.10973797      -1.56669759       0.75457153
H       -5.37206899      -2.76009046      -2.19918394
H       -5.25315617      -4.50481831      -2.50333424
H       -5.68732146      -4.17337167      -4.93489272
H       -6.50783164      -2.69101200      -4.38650442
H       -3.91370032      -2.57890310      -5.64210517
H       -4.38386176      -1.40190570      -4.40599482
H       -3.34337977      -5.46102812      -3.53056376
H       -1.13984058      -6.19616621      -6.24970118
H       -2.70910990      -6.70133269      -5.61339924
H        0.80211932      -6.29214810      -4.96608782
H        0.73439053      -8.62678673      -1.35822245
H       -1.73753306      -8.68147406      -1.44373709
C       -0.88133435       0.88133435       0.88133435
C       -0.32183553       1.58936692       1.93747094
C       -1.14363758       2.36627220       2.76358602
C       -2.53746223       2.46436997       2.56603959
C       -3.05208747       1.75838056       1.45623806
C       -2.24457719       0.96732885       0.63096096
C       -3.48106528       3.29518241       3.57786252
C       -4.98966751       2.82682515       3.65515229
C       -4.94369876       3.06096512       5.17170481
C       -3.41947166       2.87449686       5.09448940
N       -3.41940754       4.77497066       3.36986526
C       -2.41255752       5.59400511       3.84513115
O       -1.44346077       5.19492298       4.48393661
C       -2.64040439       7.08602523       3.59180337
N       -2.67263665       7.39180065       2.16229611
C       -1.49145150       7.72638697       1.51463408
C       -1.46665088       8.00048954       0.20106777
Br       0.10224715       8.44761523      -0.69593883
C       -2.69841138       7.95311105      -0.55351823
C       -3.85449391       7.61947532       0.03730533
C       -3.88078213       7.27868717       1.48343962
O       -4.92149945       6.87988077       2.00208976
H        0.74448441       1.53841447       2.14009035
H       -0.68783485       2.90298114       3.59579584
H       -4.11770328       1.80403047       1.23920242
H       -2.69510349       0.41802825      -0.19126772
H       -5.15992806       1.77422485       3.39719048
H       -5.71795559       3.43441691       3.10893622
H       -5.25410666       4.06708013       5.47439906
H       -5.47971793       2.32699486       5.77863527
H       -2.84884714       3.50899936       5.77686210
H       -3.10111372       1.83640370       5.25424486
H       -4.19639625       5.23931989       2.89925552
H       -1.84524314       7.66275824       4.07770659
H       -3.58875461       7.37549684       4.05959039
H       -0.58765546       7.75007412       2.11838702
H       -2.67518825       8.18826477      -1.61283438
H       -4.79377674       7.56598121      -0.49701374
C        0.88133435      -0.88133435       0.88133435
C        2.03068439      -0.35797823       1.46001077
C        2.85311863      -1.18350897       2.23686820
C        2.55991434      -2.54528705       2.46267040
C        1.36077221      -3.01952443       1.88640945
C        0.53694418      -2.20932985       1.09659296
C        3.56213662      -3.50292810       3.28904548
C        3.48733502      -5.04376147       2.94054846
C        5.01705926      -5.10389755       3.05541189
C        5.03981223      -3.59680509       2.75184060
N        3.48050343      -3.31339420       4.77034584
C        4.09525127      -2.28981366       5.46662885
O        4.77054507      -1.40870537       4.94306992
C        3.94778259      -2.38339087       6.98705954
N        2.54954588      -2.27606917       7.40111836
C        2.02196940      -1.02427524       7.68622792
C        0.74067203      -0.87209160       8.05544457
Br       0.00361532       0.79378775       8.43960167
C       -0.10578816      -2.03840948       8.16538287
C        0.36726594      -3.26055771       7.88345091
C        1.77477487      -3.43002670       7.43810735
O        2.17947489      -4.53654901       7.08744608
H        2.30812904       0.68144688       1.30733825
H        3.75817587      -0.75787297       2.67056299
H        1.06862153      -4.05747530       2.03483934
H       -0.35882134      -2.63148163       0.64920374
H        3.13247966      -5.27116543       1.92769829
H        2.93914769      -5.67739439       3.64476664
H        5.37642650      -5.36133857       4.05782078
H        5.52018496      -5.74123150       2.32393159
H        5.81255343      -3.03750195       3.28465323
H        5.13804073      -3.37150880       1.68221274
H        2.99213388      -4.01235783       5.33047994
H        4.53745502      -1.58928932       7.45896364
H        4.36490258      -3.34219514       7.31674412
H        2.69192430      -0.17340677       7.59078553
H       -1.13769068      -1.91141790       8.47689144
H       -0.23877869      -4.15458816       7.94693474
