174
Properties=species:S:1:pos:R:3 pbc="F F F"
C        1.79123838       1.79123838      -1.79123838
C        2.70365215       1.21122352      -2.66350978
C        3.53417633       2.02764324      -3.44138830
C        3.48288289       3.43646396      -3.37823701
C        2.51224416       3.97765502      -2.50651898
C        1.68553002       3.17372457      -1.71332447
C        4.50514682       4.36084888      -4.21782658
C        4.79454215       5.79338700      -3.61342787
C        6.26598096       5.62321672      -4.01688309
C        6.03993909       4.10296206      -3.97526884
N        4.14575223       4.48381052      -5.66439278
C        4.42334694       3.53131087      -6.62674805
O        4.98775725       2.46549759      -6.39877759
C        4.04985536       3.94642004      -8.05166967
N        2.60938485       4.15394255      -8.19311808
C        1.80534359       3.08705421      -8.56978684
C        0.47638058       3.22317123      -8.69836846
Br      -0.62819762       1.81003508      -9.19730385
C       -0.12922409       4.51096714      -8.44597323
C        0.61574396       5.55877813      -8.06646455
C        2.08259051       5.40361381      -7.88641667
O        2.74992393       6.33731074      -7.44594738
H        2.79142113       0.13097856      -2.74133279
H        4.25359332       1.55350007      -4.10923052
H        2.41066732       5.05804963      -2.42193129
H        0.97665134       3.64026952      -1.03465524
H        4.66271617       5.87121913      -2.52712017
H        4.27442477       6.63487587      -4.08172015
H        6.49969828       6.01115882      -5.01444082
H        6.99819692       6.01205835      -3.30480485
H        6.58880064       3.54093428      -4.73468575
H        6.26584627       3.65772225      -2.99790583
H        3.71999722       5.35014896      -5.99453755
H        4.38538168       3.17547140      -8.75456697
H        4.58837184       4.86977083      -8.29541123
H        2.30032730       2.13594885      -8.74955252
H       -1.20271267       4.61910709      -8.56393631
H        0.19629975       6.53479546      -7.86136106
C       -1.79123838      -1.79123838      -1.79123838
C       -1.21893315      -2.57151521      -2.78793709
C       -2.03846427      -3.34871259      -3.61603102
C       -3.44271482      -3.37574816      -3.47912088
C       -3.97270925      -2.59701076      -2.42669816
C       -3.16674805      -1.80510212      -1.60072890
C       -4.37807220      -4.20995292      -4.49579716
C       -5.85845382      -3.67934882      -4.66355439
C       -5.75628470      -3.98530184      -6.16449423
C       -4.22997016      -3.86312149      -6.02507835
N       -4.39430571      -5.67979339      -4.21985644
C       -3.40642806      -6.56373881      -4.61123899
O       -2.39255260      -6.23797630      -5.22150354
C       -3.71414474      -8.03086872      -4.30293160
N       -3.82376516      -8.26836221      -2.86431811
C       -2.68918234      -8.62455031      -2.14845199
C       -2.73528670      -8.83833238      -0.82430118
Br      -1.23004080      -9.31244202       0.16334151
C       -3.99572829      -8.70155911      -0.13042888
C       -5.10782052      -8.34479778      -0.78836832
C       -5.05424211      -8.07054297      -2.24783592
O       -6.05138234      -7.65050881      -2.83129091
H       -0.14347375      -2.57726352      -2.94299521
H       -1.57161879      -3.94305289      -4.40165223
H       -5.04785856      -2.58533411      -2.25745557
H       -3.62730271      -1.19889206      -0.82538133
H       -5.99102009      -2.60942311      -4.46061226
H       -6.63757621      -4.22814320      -4.12530138
H       -6.09926494      -4.98962960      -6.43640338
H       -6.23032813      -3.25722698      -6.82750501
H       -3.65970319      -4.55319615      -6.65152132
H       -3.85710075      -2.84865772      -6.21571588
H       -5.21204516      -6.08698623      -3.76565234
H       -2.92582445      -8.66413145      -4.72546415
H       -4.65324623      -8.29943091      -4.80087677
H       -1.76161138      -8.71617318      -2.70804411
H       -4.03034609      -8.88818149       0.93819686
H       -6.06635039      -8.22507485      -0.30103103
C       -1.79123838       1.79123838       1.79123838
C       -2.95312390       1.27463436       2.35062719
C       -3.77499512       2.10068625       3.12752650
C       -3.46886006       3.45630583       3.37241798
C       -2.25777908       3.92319357       2.81544551
C       -1.43418875       3.11260797       2.02578234
C       -4.46955690       4.41596508       4.19830029
C       -4.37309851       5.95971643       3.86854208
C       -5.90326157       6.03623816       3.96658105
C       -5.93974379       4.53308267       3.64534353
N       -4.40725095       4.20856007       5.67814452
C       -5.04169084       3.18426354       6.35545148
O       -5.72091741       2.31708051       5.81403451
C       -4.91077131       3.25872222       7.87845154
N       -3.51874112       3.13049051       8.30721385
C       -3.00885985       1.86949256       8.58383222
C       -1.73374779       1.69827169       8.96590079
Br      -1.02029920       0.01968480       9.33915731
C       -0.87532564       2.85337837       9.09901226
C       -1.33106779       4.08406703       8.82585181
C       -2.73129564       4.27490314       8.36642221
O       -3.11922032       5.38997643       8.02398530
H       -3.24065911       0.24030576       2.18276761
H       -4.68982365       1.68062058       3.54587967
H       -1.95550756       4.95592643       2.97921426
H       -0.52853206       3.52945415       1.59358989
H       -4.00396314       6.19457301       2.86251931
H       -3.82588485       6.57886089       4.58627506
H       -6.27123904       6.28633404       4.96772484
H       -6.39055969       6.68768253       3.23681791
H       -6.72495081       3.97670163       4.16276823
H       -6.02815546       4.32119360       2.57212529
H       -3.91743162       4.89536785       6.25188425
H       -5.51491566       2.46615168       8.33435271
H       -5.32068039       4.21845529       8.21441822
H       -3.68735805       1.02758440       8.47088622
H        0.15138093       2.71089359       9.42081806
H       -0.71560752       4.97023699       8.90661177
C        1.79123838      -1.79123838       1.79123838
C        2.56334212      -2.79494545       1.22009789
C        3.34049624      -3.62281847       2.03989317
C        3.37556118      -3.47877081       3.44325188
C        2.60506524      -2.41956868       3.97178425
C        1.81325998      -1.59367321       3.16564588
C        4.20934697      -4.49491760       4.37955771
C        3.68560423      -4.65222739       5.86352540
C        3.98323283      -6.15525137       5.76759657
C        3.85382235      -6.02311750       4.24123014
N        5.68066329      -4.22656218       4.38673006
C        6.55740556      -4.62766493       3.39633537
O        6.22320199      -5.24147258       2.38735786
C        8.02769870      -4.32541801       3.69482836
N        8.27321755      -2.88751296       3.79571497
C        8.62719397      -2.17940664       2.65558402
C        8.84807737      -0.85616695       2.69367595
Br       9.31944932       0.12117170       1.18086370
C        8.72147653      -0.15506404       3.95117570
C        8.36711006      -0.80535889       5.06851769
C        8.08501486      -2.26363523       5.02397090
O        7.66716430      -2.83971392       6.02630383
H        2.56267999      -2.95560645       0.14544604
H        3.92831281      -4.41393760       1.57407349
H        2.59987113      -2.24469429       5.04608282
H        1.21348789      -0.81279819       3.62529002
H        2.61745091      -4.44302596       6.00057860
H        4.24123647      -4.11280934       6.63697498
H        4.98791126      -6.43060993       6.10677672
H        3.25421052      -6.81199061       6.24885899
H        4.53765705      -6.65609807       3.67066555
H        2.83645369      -6.21039528       3.87462537
H        6.09446327      -3.77025236       5.19996810
H        8.65464376      -4.75532829       2.90544799
H        8.29856676      -4.81987970       4.63510745
H        8.71107717      -2.74427144       1.73048006
H        8.91381599       0.91273950       3.97925423
H        8.25491424      -0.31243994       6.02510210
C       -0.00445707       0.01189536      -1.78238275
H       -0.66409135       0.67374010      -2.43557963
H        0.65740317      -0.63156657      -2.45157240
C       -0.90989263      -0.90692880      -0.91072765
C        0.90977584       0.90977584      -0.90977584
C       -0.00465871       1.77757030       0.00794375
H       -0.66225468       2.44313916      -0.64384735
H        0.64322798       2.43503045       0.67728295
C       -1.78241447       0.00034974      -0.00472694
H       -2.45427497      -0.65498947       0.64260836
H       -2.43311707       0.67328779      -0.65473579
C       -0.91132561       0.90220522       0.91563759
C       -0.01476271      -0.02253852       1.78660255
H       -0.67934791      -0.69751639       2.42135241
H        0.63392994       0.61504881       2.47327442
C        0.01484550      -1.77751727      -0.01636693
H        0.67870853      -2.42144646      -0.68295456
H       -0.62264859      -2.45592969       0.64226336
C        1.78714474       0.01002794       0.00389507
H        2.44202412       0.67113390       0.66197326
H        2.45385902      -0.65136977      -0.64189061
C        0.91606151      -0.90478549       0.90901405
