161
Properties=species:S:1:pos:R:3 pbc="F F F"
C        0.00000000       0.00000000       0.00000000
C        0.88133435       0.88133435      -0.88133435
C        1.79374813       0.30131950      -1.75360576
C        2.62427231       1.11773922      -2.53148428
C        2.57297886       2.52655994      -2.46833299
C        1.60234013       3.06775100      -1.59661496
C        0.77562600       2.26382055      -0.80342045
C        3.59524279       3.45094486      -3.30792256
C        3.88463813       4.88348298      -2.70352384
C        5.35607693       4.71331269      -3.10697907
C        5.13003507       3.19305803      -3.06536482
N        3.23584821       3.57390650      -4.75448876
C        3.51344291       2.62140684      -5.71684403
O        4.07785323       1.55559357      -5.48887356
C        3.13995134       3.03651601      -7.14176564
N        1.69948083       3.24403853      -7.28321405
C        0.89543956       2.17715018      -7.65988281
C       -0.43352345       2.31326720      -7.78846444
C       -1.03912812       3.60106311      -7.53606920
C       -0.29416006       4.64887410      -7.15656052
C        1.17268649       4.49370979      -6.97651265
O        1.84001991       5.42740671      -6.53604336
H        1.88151710      -0.77892546      -1.83142877
H        3.34368930       0.64359604      -3.19932649
H        1.50076330       4.14814561      -1.51202727
H        0.06674732       2.73036549      -0.12475121
H        3.75281214       4.96131510      -1.61721614
H        3.36452075       5.72497185      -3.17181612
H        5.58979426       5.10125480      -4.10453679
H        6.08829290       5.10215433      -2.39490082
H        5.67889661       2.63103026      -3.82478173
H        5.35594224       2.74781823      -2.08800181
H        2.81009319       4.44024493      -5.08463353
H        3.47547765       2.26556738      -7.84466294
H        3.67846782       3.95986680      -7.38550721
H        1.39042328       1.22604483      -7.83964849
H       -2.11261670       3.70920306      -7.65403228
H       -0.71360427       5.62489144      -6.95145704
C       -1.28789293       1.22023422      -8.17438113
C       -2.00342737       0.30481910      -8.49758636
Br      -3.16038604      -1.17532972      -9.02018189
C       -0.88133435      -0.88133435      -0.88133435
C       -0.57865870      -1.04250627      -2.22750841
C       -1.41356672      -1.82295032      -3.03697877
C       -2.56657587      -2.46458580      -2.53671011
C       -2.80913660      -2.30286121      -1.15470828
C       -1.99098223      -1.51467608      -0.33720868
C       -3.56380766      -3.28952596      -3.50077658
C       -5.06459151      -3.39406087      -3.01299257
C       -5.51030167      -3.19723509      -4.46883194
C       -4.16399411      -2.50001447      -4.72444935
N       -3.05280897      -4.64736980      -3.86406469
C       -2.11097127      -4.89608397      -4.84463855
O       -1.57534679      -4.02434675      -5.52262683
C       -1.84000246      -6.38100436      -5.09722617
N       -1.27448730      -7.03449765      -3.91774846
C        0.10414801      -7.07490018      -3.76172038
C        0.67081323      -7.64959676      -2.68942466
C       -0.17336229      -8.24564769      -1.67899422
C       -1.50874280      -8.21166254      -1.79086922
C       -2.14172561      -7.54361759      -2.95756572
O       -3.36441120      -7.42815372      -3.01090506
H        0.29105142      -0.55998954      -2.66508229
H       -1.16713494      -1.92555466      -4.09392224
H       -3.67437841      -2.78407899      -0.70247878
H       -2.23952421      -1.39631239       0.71397257
H       -5.39494093      -2.57822931      -2.35817316
H       -5.36410412      -4.34202029      -2.55518431
H       -5.63895299      -4.13330566      -5.02332720
H       -6.39861489      -2.57650869      -4.61022447
H       -3.73541124      -2.68740745      -5.71188990
H       -4.20328841      -1.41344112      -4.57503274
H       -3.46010764      -5.46503758      -3.40982644
H       -1.15410759      -6.48614149      -5.94545889
H       -2.78447081      -6.86231871      -5.37705232
H        0.70263826      -6.61473866      -4.54401620
H        0.29013873      -8.72059012      -0.82016725
H       -2.17176462      -8.64004415      -1.05093544
C        2.09797617      -7.70030098      -2.50439762
C        3.29322514      -7.74276576      -2.34943748
Br       5.22584163      -7.81142772      -2.09888004
C       -0.88133435       0.88133435       0.88133435
C       -2.25118116       0.93955026       0.65794197
C       -3.04706835       1.77906936       1.44735810
C       -2.51013251       2.58017541       2.47756387
C       -1.11953948       2.45581511       2.69135151
C       -0.31037129       1.63139552       1.90110018
C       -3.42819092       3.60521087       3.32070842
C       -2.67804352       4.85079984       3.94280158
C       -3.88946283       5.71699012       3.56991574
C       -4.22352392       4.67860727       2.48632674
N       -4.25747122       2.93639131       4.37038094
C       -5.44718630       2.27552187       4.12898562
O       -5.95329748       2.15130152       3.01772136
C       -6.15673872       1.77304022       5.38845406
N       -5.35729787       0.77370149       6.09573405
C       -5.51920823      -0.56865347       5.78191780
C       -4.79829511      -1.52216762       6.39208071
C       -3.83768389      -1.14278725       7.40310756
C       -3.64555669       0.14537450       7.72034337
C       -4.41445537       1.20740636       7.02104719
O       -4.16903504       2.39128897       7.24314597
H       -2.71295370       0.35179025      -0.13072354
H       -4.11780036       1.82170546       1.24710601
H       -0.64465131       3.03557852       3.48070634
H        0.75982591       1.59573480       2.08595514
H       -1.76626874       5.15250211       3.41257254
H       -2.45006561       4.79919583       5.01204728
H       -4.64219543       5.79089957       4.36249085
H       -3.65721059       6.72129569       3.20684178
H       -5.29209975       4.51313191       2.32947693
H       -3.77166054       4.90741611       1.51268563
H       -3.97323900       3.01467975       5.34705291
H       -7.12743043       1.34558652       5.11269102
H       -6.34985725       2.63145777       6.04252681
H       -6.25144731      -0.81111142       5.01578071
H       -3.26645733      -1.91865808       7.90281941
H       -2.93019423       0.46689210       8.46565787
C       -4.94638898      -2.92025153       6.08058498
C       -5.07041760      -4.09114681       5.81970730
Br      -5.27096139      -5.98438543       5.39789017
C        0.88133435      -0.88133435       0.88133435
C        2.23058813      -1.03134378       0.58674148
C        3.02370024      -1.87107861       1.37871695
C        2.50438716      -2.58174106       2.48174358
C        1.13753106      -2.36512042       2.76405462
C        0.33030190      -1.53970986       1.97285524
C        3.41220614      -3.61055148       3.33135259
C        2.63218651      -4.77430077       4.06515768
C        3.77040671      -5.72869255       3.67726944
C        4.09743387      -4.77264571       2.51837834
N        4.33666401      -2.93442329       4.29315617
C        5.54484676      -2.35816403       3.94868299
O        5.99150765      -2.32487797       2.80593474
C        6.35302311      -1.82934099       5.13586889
N        5.65223456      -0.74781495       5.82668390
C        5.86916017       0.56356123       5.42687363
C        5.23847785       1.58950208       6.01923242
C        4.31891643       1.32280789       7.10189566
C        4.07504906       0.06739708       7.50362258
C        4.74241153      -1.07440505       6.82609234
O        4.44561933      -2.22800060       7.12985005
H        2.67730404      -0.51569155      -0.25897517
H        4.07700179      -1.98688318       1.12272686
H        0.67822130      -2.87200073       3.61071413
H       -0.72374584      -1.43173582       2.21387405
H        1.67590236      -5.05113469       3.60430634
H        2.46998729      -4.65081875       5.14050268
H        4.56277425      -5.80258988       4.43022172
H        3.46256595      -6.73622201       3.38656009
H        5.16255185      -4.67849520       2.29366155
H        3.57779417      -5.02795409       1.58601403
H        4.10586435      -2.94223302       5.28687429
H        7.32805419      -1.47489468       4.78275909
H        6.53638729      -2.66028384       5.82717071
H        6.56780327       0.72052167       4.60883500
H        3.82124860       2.15689462       7.58626467
H        3.38767080      -0.17049591       8.30457750
C        5.44482988       2.95735982       5.61925236
C        5.61764971       4.10294067       5.28426906
Br       5.89708475       5.95524802       4.74262940
