173
Properties=species:S:1:pos:R:3 pbc="F F F"
C        0.00000000       0.00000000       0.00000000
C        0.88098752       0.88098752      -0.88098752
C        1.77986959       0.29849217      -1.76637524
C        2.59142689       1.10553943      -2.57340046
C        2.50500639       2.50883166      -2.53032830
C        1.59445505       3.06656037      -1.60567506
C        0.78959494       2.26375684      -0.79090583
C        3.39145250       3.43273159      -3.39938558
C        4.25554453       2.71636640      -4.47757121
C        3.42959978       2.18909472      -5.65008305
O        2.64993676       3.22382391      -6.23850582
C        1.74023957       3.80135331      -5.30627372
C        2.50919547       4.46076670      -4.16873417
N        4.28197059       4.24055775      -2.52770175
C        5.22309842       3.48759282      -1.71433926
N        6.03628854       4.42967993      -1.00252745
C        6.18187053       4.47788004       0.36898201
O        5.58239695       3.79248637       1.18626723
O        7.13808210       5.43589595       0.73969061
C        7.57828888       5.91248853      -0.48460928
C        8.55823089       6.86524675      -0.66497622
C        8.87260619       7.20836135      -1.98140460
Br      10.20712661       8.50931235      -2.30971888
C        8.21803778       6.60341313      -3.07238082
C        7.23035148       5.63635599      -2.85910388
C        6.93384960       5.31736082      -1.55079725
H        1.86448117      -0.78330516      -1.83467934
H        3.29089591       0.59524471      -3.22895745
H        1.50638710       4.14515937      -1.49185424
H        0.10367777       2.73005293      -0.08831832
H        4.85773894       1.90264356      -4.05908010
H        4.96875229       3.44523398      -4.88978383
H        4.10326054       1.80555656      -6.42372875
H        2.77133881       1.36300182      -5.36456994
H        1.15781855       4.55712869      -5.84290985
H        1.03781584       3.03974905      -4.94951992
H        3.16244011       5.22740183      -4.61090060
H        1.81037373       4.99317141      -3.51475058
H        3.72523585       4.81657350      -1.90062537
H        5.89520618       2.86747854      -2.31576526
H        4.71151049       2.84097330      -0.99437168
H        9.05720253       7.31947362       0.18279785
H        8.47306172       6.88721051      -4.09118350
H        6.71474968       5.17415691      -3.69275652
C       -0.88098752      -0.88098752      -0.88098752
C       -1.02621952      -2.23144118      -0.58707631
C       -1.83185356      -3.04212155      -1.39639167
C       -2.52738471      -2.51651898      -2.50026266
C       -2.34161850      -1.14461192      -2.78046006
C       -1.52978287      -0.33414717      -1.98032757
C       -3.41855940      -3.38265833      -3.42235195
C       -3.66321726      -4.84308732      -2.94317757
C       -4.60179774      -4.92673761      -1.74024220
O       -5.83727882      -4.27164576      -2.00334191
C       -5.65505239      -2.89050257      -2.30231163
C       -4.82861663      -2.73745483      -3.57262488
N       -2.84373910      -3.41521242      -4.79127857
C       -1.51782076      -4.00080946      -4.90640028
N       -1.16342094      -4.00949956      -6.29557543
C       -0.03435097      -3.42455833      -6.83185925
O        0.78419608      -2.74246000      -6.23035217
O        0.08069813      -3.71490832      -8.20007726
C       -1.01130751      -4.53699309      -8.42708608
C       -1.33155485      -5.12444753      -9.63245148
C       -2.47000908      -5.93234939      -9.66001366
Br      -2.97467309      -6.77275539     -11.27872937
C       -3.25073799      -6.13762559      -8.50546815
C       -2.89912579      -5.53183705      -7.29484852
C       -1.77379721      -4.73498670      -7.29322377
H       -0.51282976      -2.66876276       0.26573718
H       -1.88927884      -4.09387391      -1.13194531
H       -2.81769607      -0.68266552      -3.64303912
H       -1.40810307       0.71662259      -2.23056855
H       -2.73076162      -5.37160528      -2.71709569
H       -4.14106947      -5.40053425      -3.76216639
H       -4.82617935      -5.97762660      -1.52873990
H       -4.16057183      -4.50729547      -0.83104326
H       -6.64779834      -2.45512725      -2.45493150
H       -5.20226110      -2.37970441      -1.44511930
H       -5.36816062      -3.24978419      -4.38279773
H       -4.78334811      -1.68017354      -3.85477407
H       -2.79811632      -2.47273666      -5.17158174
H       -1.48491087      -5.03729108      -4.55624804
H       -0.77015653      -3.42652096      -4.35017798
H       -0.71990735      -4.96201955     -10.51195140
H       -4.13732982      -6.76669738      -8.54742853
H       -3.50051121      -5.67621395      -6.40493796
C       -0.88098752       0.88098752       0.88098752
C       -1.06188775       0.56154987       2.22129939
C       -1.87263088       1.36720885       3.03052706
C       -2.49913678       2.52047867       2.52455090
C       -2.30861184       2.80408172       1.15399692
C       -1.50778084       1.99607362       0.34040316
C       -3.40915111       3.42908512       3.38533345
C       -3.43745058       3.10475048       4.90728108
C       -2.14669201       3.49727119       5.62481435
O       -1.83359748       4.86862957       5.41003943
C       -1.65573802       5.16447402       4.02765455
C       -2.95361184       4.91449693       3.27058757
N       -4.79760291       3.39297002       2.85965717
C       -5.44882508       2.09312489       2.88308054
N       -6.79063908       2.26838211       2.40947473
C       -7.35212821       1.59479489       1.34384545
O       -6.77730033       0.81886695       0.59244882
O       -8.71451026       1.90566969       1.21410750
C       -8.93296215       2.75784885       2.28457569
C      -10.14387338       3.32579881       2.61878167
C      -10.16619336       4.15213728       3.74404150
Br     -11.79168314       4.96871915       4.26575556
C       -9.00265803       4.38903026       4.50214343
C       -7.78849398       3.79570731       4.14161007
C       -7.79007059       2.98759790       3.02433918
H       -0.58290941      -0.31589061       2.64883654
H       -1.99580795       1.05570634       4.06358377
H       -2.79710638       3.65777440       0.68851992
H       -1.38860650       2.24452152      -0.71107900
H       -3.66120575       2.05121101       5.10704584
H       -4.25022693       3.68404640       5.36949677
H       -2.27447768       3.35489905       6.70316911
H       -1.29276957       2.88342399       5.32271700
H       -1.38382452       6.22216420       3.95186837
H       -0.81888600       4.58213984       3.62605897
H       -3.72660031       5.55760214       3.71654009
H       -2.84126126       5.24465429       2.23238017
H       -4.81451702       3.72851783       1.89939987
H       -5.51262274       1.67376261       3.89206464
H       -4.93506236       1.36950786       2.24228524
H      -11.03238040       3.13169325       2.02980466
H       -9.03842118       5.03989748       5.37313707
H       -6.88681089       3.98148767       4.71336456
C        0.88098752      -0.88098752       0.88098752
C        1.22559893      -2.15959256       0.45954552
C        2.03145539      -2.97066213       1.26824926
C        2.52903535      -2.51328138       2.50184961
C        2.14329950      -1.21630727       2.90708371
C        1.33033689      -0.40728622       2.10663451
C        3.41365078      -3.38363741       3.42628148
C        3.89059033      -4.73648138       2.82241043
C        4.95987964      -4.56445364       1.74444428
O        6.06690305      -3.81440078       2.23096266
C        5.68142000      -2.51027441       2.65617218
C        4.70654790      -2.60986216       3.82228628
N        2.69911612      -3.65062928       4.70048469
C        1.45228018      -4.38947818       4.58327213
N        0.94983600      -4.61101938       5.90764055
C       -0.29596939      -4.22660456       6.36013338
O       -1.12153796      -3.56971836       5.74043569
O       -0.52489526      -4.69667033       7.66251237
C        0.62933163      -5.41442154       7.93163351
C        0.88478623      -6.10876300       9.09490463
C        2.10516210      -6.78244562       9.17476441
Br       2.52820267      -7.75739284      10.74056234
C        3.02865584      -6.75389415       8.11128174
C        2.74056859      -6.04429929       6.94094347
C        1.53163775      -5.38329892       6.88707101
H        0.86871018      -2.54111109      -0.49396593
H        2.24888670      -3.96819207       0.89801930
H        2.45923923      -0.81587050       3.86829098
H        1.05125365       0.58392228       2.45471765
H        3.06240061      -5.33275046       2.42431152
H        4.34054655      -5.33545305       3.62777050
H        5.33593728      -5.54922849       1.44738008
H        4.57329398      -4.08620537       0.83941121
H        6.58884533      -1.98996595       2.97904580
H        5.26624190      -1.94973939       1.81110352
H        5.21266620      -3.15640472       4.63167162
H        4.49844724      -1.60774536       4.21210312
H        2.49412839      -2.77401233       5.17429400
H        1.58824630      -5.37126019       4.11894350
H        0.70505041      -3.83668245       4.00512260
H        0.16386557      -6.12641950       9.90359324
H        3.97675976      -7.28100375       8.19369222
H        3.45026999      -6.00868270       6.12271042
