182
Properties=species:S:1:pos:R:3 pbc="F F F"
C        1.79145824       1.79145824      -1.79145824
C        2.33603772       2.96351065      -1.27161388
C        3.14241309       3.77579818      -2.07784855
C        3.40235037       3.41466881      -3.40193017
C        2.85187959       2.23390001      -3.90940676
C        2.04695889       1.42031075      -3.10768165
O        4.16186861       4.12124456      -4.29327517
C        4.77539349       5.31101443      -3.81091440
C        5.60540630       5.96522598      -4.91462390
O        6.82821901       6.06617438      -4.78569219
N        4.94692870       6.45565687      -6.03116150
C        5.70925757       7.14078765      -7.07561988
C        5.25841831       6.67663502      -8.46180363
O        3.84397221       6.85280412      -8.63062607
C        3.10647546       6.08335718      -7.65716744
H        3.36772139       5.02772500      -7.81363017
C        3.49005252       6.51279937      -6.22269101
C        1.61986048       6.25736415      -7.90226185
C        0.73271286       5.21170186      -7.59865248
C       -0.64006733       5.35792815      -7.81391875
C       -1.13675564       6.55306720      -8.32953611
Br      -2.99282085       6.74699540      -8.63072866
C       -0.27471567       7.60558423      -8.62613690
C        1.09702356       7.45817624      -8.40951985
H        2.14190007       3.25582834      -0.24314573
H        3.55074721       4.67889010      -1.63518893
H        3.05611283       1.94073502      -4.93626039
H        1.63061930       0.50463733      -3.51902419
H        5.46007603       5.07222152      -2.98715605
H        4.03175653       6.03848579      -3.46493357
H        6.78534736       6.98338836      -6.95865078
H        5.50687030       8.21173081      -6.95556070
H        5.76119137       7.26542787      -9.23511630
H        5.50867171       5.62182474      -8.62601099
H        3.20539976       7.55881596      -6.04942999
H        2.95639347       5.90967361      -5.48578376
H        1.10573787       4.27066769      -7.19856304
H       -1.31080688       4.53476793      -7.58145366
H       -0.65541226       8.53919549      -9.03107456
H        1.76251367       8.28438060      -8.65373348
C       -1.79145824      -1.79145824      -1.79145824
C       -2.84597427      -1.22291158      -2.50227639
C       -3.65818807      -2.02858864      -3.30928310
C       -3.41450190      -3.40076962      -3.40367783
C       -2.35062065      -3.95728029      -2.68728542
C       -1.53745199      -3.15634292      -1.88115639
O       -4.13538700      -4.29580434      -4.14519700
C       -5.20484303      -3.76989914      -4.92258015
C       -5.88942121      -4.88749860      -5.70833636
O       -5.86026294      -4.87813837      -6.94168427
N       -6.55393624      -5.87768169      -5.00212914
C       -7.26933074      -6.92662262      -5.72971174
C       -6.99734795      -8.29572440      -5.10378461
O       -7.32314656      -8.29834201      -3.70591382
C       -6.52935186      -7.33026020      -2.98738801
H       -5.47591364      -7.61228392      -3.12087900
C       -6.76828224      -5.90959849      -3.54766218
C       -6.86780697      -7.40104840      -1.51063110
C       -5.88472864      -7.10660104      -0.55173751
C       -6.18179886      -7.16238561       0.81240490
C       -7.46587017      -7.50792870       1.22795120
Br      -7.86484460      -7.59375011       3.07369150
C       -8.45737615      -7.79216463       0.29253533
C       -8.15909326      -7.73504570      -1.07058070
H       -3.04621678      -0.15677753      -2.43787983
H       -4.46737999      -1.54764447      -3.84980179
H       -2.14841595      -5.02295142      -2.76174086
H       -0.71328733      -3.60663544      -1.33435806
H       -4.81758215      -3.04851845      -5.65335299
H       -5.95919667      -3.28085035      -4.29512888
H       -6.99952775      -6.93819514      -6.78966361
H       -8.33616733      -6.68534420      -5.65265027
H       -7.61356338      -9.05820258      -5.58996958
H       -5.94657239      -8.58418859      -5.22574645
H       -7.81265802      -5.60940648      -3.39158120
H       -6.14460307      -5.18128875      -3.02595902
H       -4.87599492      -6.83847867      -0.86049502
H       -5.40597631      -6.93995663       1.54051824
H       -9.45999326      -8.06498672       0.61012220
H       -8.93965406      -7.96826931      -1.79270438
C       -1.79145824       1.79145824       1.79145824
C       -2.58615808       2.77612403       1.20888014
C       -3.39351317       3.58825185       2.01429480
C       -3.40440938       3.41431540       3.40022457
C       -2.60426128       2.41994685       3.97097823
C       -1.79748784       1.60707722       3.17038623
O       -4.13697312       4.14352522       4.29589000
C       -4.99668005       5.14198504       3.75865723
C       -5.76003107       5.84471425       4.88051085
O       -6.98888348       5.75211224       4.93908985
N       -5.04096576       6.59680802       5.79597328
C       -5.75147159       7.32954332       6.84465020
C       -5.04266705       7.16402862       8.19016129
O       -3.66606622       7.56049585       8.10084032
C       -2.95623822       6.75346870       7.13729316
H       -3.01821609       5.71130522       7.47955525
C       -3.60042543       6.88660001       5.73851746
C       -1.49816729       7.17025973       7.11105945
C       -0.50402015       6.22303273       6.81601432
C        0.84320924       6.59199080       6.78299800
C        1.20610969       7.91236145       7.03959590
Br       3.02965461       8.40916830       7.00538952
C        0.23439983       8.86864254       7.32276274
C       -1.11180888       8.49845572       7.35445505
H       -2.58719954       2.92168643       0.13198817
H       -4.00069504       4.34169020       1.52244101
H       -2.61316892       2.27188877       5.04805054
H       -1.18480348       0.83737754       3.63209980
H       -5.74144013       4.67960180       3.09841167
H       -4.43657571       5.89997943       3.19862076
H       -6.79337663       7.00694798       6.92706189
H       -5.74440715       8.38437922       6.54537544
H       -5.52173728       7.79476535       8.94523290
H       -5.09296191       6.12545642       8.53808911
H       -3.51636017       7.91990186       5.37738367
H       -3.08378715       6.25207519       5.01598849
H       -0.77129919       5.18686603       6.61680338
H        1.59973086       5.84353418       6.56161138
H        0.51105343       9.89941377       7.52649744
H       -1.86206097       9.25252493       7.58604184
C        1.79145824      -1.79145824       1.79145824
C        2.56023702      -1.21240043       2.79852479
C        3.37196654      -2.01722101       3.60687227
C        3.41346450      -3.39899480       3.40649004
C        2.63409078      -3.96692713       2.39416845
C        1.82229965      -3.16701658       1.58563506
O        4.16784034      -4.29169797       4.11685003
C        4.94845803      -3.76520619       5.18365810
C        5.70761568      -4.88762929       5.89001119
O        5.46256104      -5.14637718       7.07114736
N        6.68046714      -5.57331532       5.17996461
C        7.46477124      -6.61196981       5.84892406
C        7.60399479      -7.84231161       4.95055056
O        8.16148096      -7.49032549       3.67559594
C        7.31744596      -6.54500475       2.98454936
H        6.34148150      -7.02822808       2.83936697
C        7.14691226      -5.25687496       3.82175569
C        7.91537140      -6.23954958       1.62456550
C        7.07473255      -5.92365674       0.54467790
C        7.61004229      -5.63497591      -0.71323863
C        8.99055889      -5.65480322      -0.89951445
Br       9.71419860      -5.27466791      -2.60396330
C        9.84121844      -5.95440970       0.16137731
C        9.30463762      -6.24180054       1.41828149
H        2.53692125      -0.13881638       2.96513651
H        3.95324351      -1.52888532       4.38269741
H        2.65366784      -5.04255045       2.23688995
H        1.22119524      -3.62715750       0.80592808
H        4.29511597      -3.29483456       5.92950307
H        5.67891934      -3.02990013       4.82635642
H        7.02305484      -6.89586967       6.80846199
H        8.45245576      -6.17759984       6.04410621
H        8.27402970      -8.57144862       5.41625721
H        6.63397184      -8.32880710       4.79372850
H        8.11423349      -4.75295410       3.94645810
H        6.48317109      -4.55432379       3.31435596
H        5.99402583      -5.90751352       0.67342925
H        6.94375667      -5.40133448      -1.53967645
H       10.91858503      -5.97425716       0.02201559
H        9.97882168      -6.48371800       2.23808806
C       -0.00445707       0.01189536      -1.78238275
H       -0.66409135       0.67374010      -2.43557963
H        0.65740317      -0.63156657      -2.45157240
C       -0.90989263      -0.90692880      -0.91072765
C        0.90977584       0.90977584      -0.90977584
C       -0.00465871       1.77757030       0.00794375
H       -0.66225468       2.44313916      -0.64384735
H        0.64322798       2.43503045       0.67728295
C       -1.78241447       0.00034974      -0.00472694
H       -2.45427497      -0.65498947       0.64260836
H       -2.43311707       0.67328779      -0.65473579
C       -0.91132561       0.90220522       0.91563759
C       -0.01476271      -0.02253852       1.78660255
H       -0.67934791      -0.69751639       2.42135241
H        0.63392994       0.61504881       2.47327442
C        0.01484550      -1.77751727      -0.01636693
H        0.67870853      -2.42144646      -0.68295456
H       -0.62264859      -2.45592969       0.64226336
C        1.78714474       0.01002794       0.00389507
H        2.44202412       0.67113390       0.66197326
H        2.45385902      -0.65136977      -0.64189061
C        0.91606151      -0.90478549       0.90901405
