161
Properties=species:S:1:pos:R:3 pbc="F F F"
C        0.00000000       0.00000000       0.00000000
C        0.88155421       0.88155421      -0.88155421
C        1.42613369       2.05360662      -0.36170986
C        2.23250906       2.86589416      -1.16794453
C        2.49244634       2.50476479      -2.49202614
C        1.94197556       1.32399599      -2.99950274
C        1.13705487       0.51040673      -2.19777763
O        3.25196459       3.21134054      -3.38337115
C        3.86548947       4.40111041      -2.90101037
C        4.69550227       5.05532195      -4.00471987
O        5.91831498       5.15627035      -3.87578817
N        4.03702468       5.54575285      -5.12125747
C        4.79935354       6.23088363      -6.16571586
C        4.34851428       5.76673099      -7.55189961
O        2.93406818       5.94290009      -7.72072205
C        2.19657143       5.17345316      -6.74726341
H        2.45781737       4.11782097      -6.90372614
C        2.58014850       5.60289534      -5.31278699
C        0.70995646       5.34746012      -6.99235783
C       -0.17719117       4.30179784      -6.68874845
C       -1.54997136       4.44802412      -6.90401473
C       -2.04665966       5.64316317      -7.41963208
Br      -3.90272487       5.83709137      -7.72082464
C       -1.18461970       6.69568020      -7.71623288
C        0.18711954       6.54827222      -7.49961583
H        1.23199605       2.34592432       0.66675829
H        2.64084319       3.76898608      -0.72528491
H        2.14620880       1.03083099      -4.02635637
H        0.72071528      -0.40526670      -2.60912017
H        4.55017200       4.16231749      -2.07725203
H        3.12185251       5.12858176      -2.55502955
H        5.87544334       6.07348434      -6.04874675
H        4.59696627       7.30182678      -6.04565667
H        4.85128734       6.35552384      -8.32521228
H        4.59876769       4.71192071      -7.71610697
H        2.29549573       6.64891193      -5.13952596
H        2.04648945       4.99976959      -4.57587973
H        0.19583385       3.36076366      -6.28865902
H       -2.22071091       3.62486391      -6.67154963
H       -1.56531628       7.62929146      -8.12117053
H        0.85260964       7.37447658      -7.74382945
C       -0.88155421      -0.88155421      -0.88155421
C       -1.40065695      -0.37145144      -2.06934179
C       -2.21174238      -1.17588511      -2.87872025
C       -2.50219653      -2.48829795      -2.49874279
C       -1.97167609      -2.98814610      -1.30565209
C       -1.16134579      -2.18848947      -0.49540396
O       -3.28489774      -3.37077845      -3.19100008
C       -3.81577403      -2.92002014      -4.43181608
C       -4.64064688      -4.02569500      -5.08920221
O       -4.27966001      -4.50236302      -6.16835047
N       -5.79972298      -4.44725199      -4.45706003
C       -6.64086260      -5.46157539      -5.09351504
C       -7.09885975      -6.50024606      -4.06803907
O       -7.76313873      -5.87422340      -2.96032819
C       -6.88168652      -4.95580922      -2.27979226
H       -6.02566761      -5.53948212      -1.91421475
C       -6.39224412      -3.85515051      -3.24843620
C       -7.60471170      -4.35600036      -1.08906235
C       -6.88150646      -3.98970410       0.05785543
C       -7.53194123      -3.43135076       1.16122450
C       -8.90999669      -3.23011965       1.12398075
Br      -9.79143917      -2.48456745       2.62081549
C       -9.64299894      -3.57606078      -0.00823366
C       -8.99125431      -4.13316617      -1.11058711
H       -1.18220069       0.64771797      -2.37667935
H       -2.59412966      -0.74314683      -3.79783769
H       -2.18551765      -4.01132579      -1.00655272
H       -0.75558329      -2.59578764       0.42680218
H       -2.99863052      -2.67051718      -5.12059383
H       -4.46072074      -2.04308458      -4.30165850
H       -6.12233133      -5.95434384      -5.92099926
H       -7.50928717      -4.93206835      -5.50309421
H       -7.80661765      -7.19517838      -4.53022743
H       -6.25078101      -7.08442426      -3.69159010
H       -7.23931581      -3.24915038      -3.59546744
H       -5.70067047      -3.17862528      -2.74284301
H       -5.80498383      -4.14388028       0.10360758
H       -6.95735352      -3.16211995       2.04377084
H      -10.71831838      -3.42425949      -0.04256783
H       -9.57580775      -4.40832766      -1.98678026
C       -0.88155421       0.88155421       0.88155421
C       -1.10195180       2.21095904       0.52853933
C       -1.90729914       3.02305796       1.33599065
C       -2.49027833       2.50439326       2.49456569
C       -2.26313967       1.16746809       2.83486653
C       -1.46033890       0.35365018       2.03125015
O       -3.28575976       3.19059139       3.37032512
C       -3.57731307       4.54487134       3.04542584
C       -4.49312675       5.15914207       4.10327528
O       -5.62852600       5.52884793       3.79299958
N       -4.00423380       5.30830834       5.39149286
C       -4.83742709       5.94853073       6.40999520
C       -4.76530315       5.17438722       7.72745452
O       -3.40649523       5.02582960       8.16536549
C       -2.62604208       4.29740962       7.19383630
H       -3.08837576       3.30679610       7.08419262
C       -2.62928983       5.03246728       5.83407372
C       -1.21365400       4.11908734       7.71703307
C       -0.47288222       2.98049792       7.35997498
C        0.83117828       2.80376257       7.82948321
C        1.40634264       3.76703534       8.65544290
Br       3.16677875       3.52272538       9.29924451
C        0.69237130       4.90827237       9.01139231
C       -0.61060854       5.08388344       8.54051560
H       -0.65461872       2.62680799      -0.37026463
H       -2.05761982       4.05219906       1.02529529
H       -2.72001798       0.75314406       3.73023411
H       -1.29800883      -0.68396821       2.31052813
H       -4.10894095       4.59419139       2.08660918
H       -2.66654154       5.15228575       2.98663653
H       -5.87748855       6.03708017       6.08310572
H       -4.43671015       6.95981477       6.54792481
H       -5.30898058       5.71436676       8.50867613
H       -5.21848743       4.18100445       7.62730349
H       -2.14257281       6.01185287       5.92950795
H       -2.06571901       4.46618745       5.09023230
H       -0.90955594       2.21733358       6.71836702
H        1.38634115       1.91200684       7.55003694
H        1.13419290       5.66188894       9.65744967
H       -1.16260373       5.97551259       8.83279935
C        0.88155421      -0.88155421       0.88155421
C        1.14981701      -0.49803483       2.19359833
C        1.96009334      -1.30234491       3.00390950
C        2.50049073      -2.48805732       2.50068922
C        2.22016827      -2.86225220       1.18305382
C        1.41149418      -2.06237888       0.37136616
O        3.31096090      -3.35426444       3.18145094
C        3.59287097      -3.03551079       4.53922849
C        4.48416722      -4.10898518       5.16239169
O        4.06003780      -4.79259705       6.09773866
N        5.76931902      -4.26660411       4.66811186
C        6.66508215      -5.24523071       5.28564017
C        7.41360955      -6.03968895       4.21384638
O        8.11502673      -5.16461855       3.31804504
C        7.20073714      -4.27838331       2.63816755
H        6.50354209      -4.90770726       2.06811514
C        6.41941320      -3.41862825       3.65778938
C        7.97491480      -3.40808182       1.66677779
C        7.36453527      -2.96792476       0.48089509
C        8.06239139      -2.16161160      -0.42193549
C        9.37436378      -1.78489911      -0.14312730
Br      10.32201918      -0.70283411      -1.36966215
C        9.99313065      -2.20152233       1.03264040
C        9.29393472      -3.00663216       1.93444070
H        0.73546011       0.42178485       2.59748682
H        2.14285553      -0.97097458       4.02128407
H        2.62952643      -3.78790438       0.78596535
H        1.20230159      -2.37152235      -0.64925519
H        2.66154582      -3.00903404       5.11916166
H        4.10449980      -2.07022579       4.63073823
H        6.12321058      -5.92650707       5.94795677
H        7.37694999      -4.67411007       5.89338967
H        8.15244263      -6.69653788       4.68304296
H        6.72572725      -6.66673961       3.63432851
H        7.10686402      -2.76576536       4.21130425
H        5.70513833      -2.77083051       3.14616992
H        6.34140757      -3.25664818       0.24720078
H        7.57698445      -1.83770988      -1.33899170
H       11.01699003      -1.91350126       1.25465442
H        9.79087526      -3.33400224       2.84603817
