110
Properties=species:S:1:pos:R:3 pbc="F F F"
C        1.22809181       7.48105590       1.26274511
N        1.41142163       6.20434393       0.62854737
C        1.33491234       5.03447852       1.34716937
O        1.19867128       5.00350076       2.56898501
C        1.51880238       3.75875334       0.52206745
O        1.03870688       3.90196876      -0.81892689
C        1.79489558       3.19942061      -1.72559252
C        1.79751275       1.79751275      -1.79751275
C        2.58540009       1.13987257      -2.75167259
C        3.34623202       1.87005133      -3.66108911
C        3.31059886       3.26229819      -3.63238603
C        2.53461078       3.92285569      -2.67312588
Br       2.51704097       5.82241653      -2.71522904
H        1.40933705       8.27070697       0.52894333
H        1.92849721       7.58004167       2.09809812
H        0.20347889       7.55054132       1.64236299
H        1.35951822       6.13539579      -0.38275197
H        0.93096248       2.98537907       1.02368932
H        2.58458136       3.50148745       0.55963315
H        2.59777527       0.05327332      -2.80417438
H        3.94655740       1.35557436      -4.40655473
H        3.88607772       3.82510935      -4.36579394
C       -5.35027250       2.71003524      -4.80616534
N       -4.51164721       1.71703092      -4.19260191
C       -3.22436404       2.01055242      -3.80840987
O       -2.68298292       3.09012413      -4.04032823
C       -2.47320479       0.85715639      -3.13943988
O       -3.34494444      -0.00921109      -2.40544700
C       -2.94369009      -1.32225286      -2.45396575
C       -1.79751275      -1.79751275      -1.79751275
C       -1.44623971      -3.15162972      -1.87907582
C       -2.24887176      -4.04637029      -2.58213040
C       -3.41632210      -3.59526679      -3.19369419
C       -3.76421682      -2.24141344      -3.12496209
Br      -5.38485851      -1.70834353      -3.96148451
H       -6.29403883       2.24395323      -5.10101508
H       -4.84697643       3.12277086      -5.68623518
H       -5.53836775       3.51543275      -4.08872222
H       -4.92884694       0.87043284      -3.81925188
H       -1.76865174       1.31780049      -2.44180099
H       -1.92547158       0.32822091      -3.92918499
H       -0.55332649      -3.52197662      -1.37991986
H       -1.97835617      -5.09758660      -2.63274372
H       -4.05296417      -4.30720041      -3.71681643
C        0.14058798      -0.09674597       7.68373655
N       -0.23487134       0.37377372       6.37857312
C        0.65292089       0.34629601       5.32884637
O        1.82965577       0.01089289       5.45194991
C        0.09126178       0.84957071       3.99717934
O       -1.30966086       0.58809707       3.86184460
C       -1.96534751       1.58038193       3.17417927
C       -1.79751275       1.79751275       1.79751275
C       -2.50253572       2.82226600       1.15214352
C       -3.40302892       3.61270296       1.86164057
C       -3.61612559       3.37210316       3.21705434
C       -2.90490679       2.35766507       3.86802048
Br      -3.27039627       2.07343420       5.71085608
H       -0.68245003       0.09030278       8.37834787
H        1.03931989       0.43023043       8.01953022
H        0.35098218      -1.17000917       7.63264857
H       -1.21660118       0.50450517       6.15655963
H        0.62648861       0.30312697       3.21601387
H        0.32534698       1.91937909       3.93240355
H       -2.36779441       3.00009858       0.08732999
H       -3.95593386       4.39856678       1.35418584
H       -4.34342355       3.97617406       3.75738339
C        7.39279381      -1.51241787      -1.45880908
N        6.17229752      -1.51465542      -0.69973475
C        5.31137726      -0.44291524      -0.73207101
O        5.56316487       0.60422159      -1.32575625
C        4.03997256      -0.61288735       0.10262836
O        3.61076392      -1.97678942       0.17204918
C        3.04608722      -2.28884127       1.38498022
C        1.79751275      -1.79751275       1.79751275
C        1.27182228      -2.16033946       3.04478352
C        1.96529029      -3.03943077       3.87265139
C        3.18057702      -3.57385412       3.45085194
C        3.71491617      -3.20446378       2.21121240
Br       5.36316449      -3.99646804       1.69505401
H        7.95735148      -2.41877534      -1.22502614
H        7.98380546      -0.62781909      -1.20118379
H        7.15245804      -1.48585791      -2.52665873
H        5.81586081      -2.38886304      -0.32705787
H        3.26586398      -0.02741294      -0.40062468
H        4.24543710      -0.18803403       1.09296453
H        0.30903942      -1.77385451       3.37232904
H        1.54796842      -3.32678229       4.83393578
H        3.70192714      -4.28289490       4.09215897
C       -0.00445707       0.01189536      -1.78238275
H       -0.66409135       0.67374010      -2.43557963
H        0.65740317      -0.63156657      -2.45157240
C       -0.90989263      -0.90692880      -0.91072765
C        0.90977584       0.90977584      -0.90977584
C       -0.00465871       1.77757030       0.00794375
H       -0.66225468       2.44313916      -0.64384735
H        0.64322798       2.43503045       0.67728295
C       -1.78241447       0.00034974      -0.00472694
H       -2.45427497      -0.65498947       0.64260836
H       -2.43311707       0.67328779      -0.65473579
C       -0.91132561       0.90220522       0.91563759
C       -0.01476271      -0.02253852       1.78660255
H       -0.67934791      -0.69751639       2.42135241
H        0.63392994       0.61504881       2.47327442
C        0.01484550      -1.77751727      -0.01636693
H        0.67870853      -2.42144646      -0.68295456
H       -0.62264859      -2.45592969       0.64226336
C        1.78714474       0.01002794       0.00389507
H        2.44202412       0.67113390       0.66197326
H        2.45385902      -0.65136977      -0.64189061
C        0.91606151      -0.90478549       0.90901405
