117
Properties=species:S:1:pos:R:3 pbc="F F F"
C        0.00000000       0.00000000       0.00000000
C        0.87839897       0.87839897      -0.87839897
C        2.20005655       1.12580515      -0.54156471
N        3.02139760       1.92771081      -1.26290160
C        2.49272145       2.51235335      -2.36814900
Cl       3.58562465       3.59797351      -3.13107244
C        1.19724222       2.28554833      -2.80776167
C        0.36781863       1.46528062      -2.02986820
C        0.59610150       2.95747676      -3.96641080
O       -0.38665450       3.65722160      -3.72034383
N        1.06950053       2.73742265      -5.25953117
C        2.09564116       1.76081544      -5.61419140
C        0.31120026       3.33929092      -6.36193984
C        1.18436406       4.09491806      -7.32037643
S        1.67988346       3.37291129      -8.80062124
C        2.46471599       4.80296033      -9.31520936
C        2.34064818       5.80075092      -8.38285938
C        1.62004501       5.40515971      -7.22858684
H        2.64996843       0.69009591       0.34713195
H       -0.67120700       1.31643452      -2.31557082
H        2.38661007       1.13714091      -4.76810639
H        2.97732264       2.29190787      -5.98428614
H        1.70807280       1.10118066      -6.39642342
H       -0.45146704       4.02914955      -5.98312092
H       -0.23279154       2.53025720      -6.86417694
H        2.95987695       4.83993353     -10.27575482
H        1.39772702       6.04556058      -6.38279930
C        2.86152248       7.13406594      -8.53957891
C        3.29775470       8.25071727      -8.67083153
Br       4.00310532      10.05624803      -8.88305590
C       -0.87839897      -0.87839897      -0.87839897
C       -0.44024491      -1.30470428      -2.12247722
N       -1.18951050      -2.05729658      -2.96520293
C       -2.43585249      -2.39281014      -2.54456118
Cl      -3.33360792      -3.24035910      -3.74070358
C       -2.94002947      -2.05200470      -1.29851806
C       -2.14710019      -1.25828553      -0.45758173
C       -4.30618706      -2.35753799      -0.85626401
O       -5.00999887      -1.38009352      -0.60081854
N       -4.73018622      -3.67208053      -0.66418760
C       -3.86682391      -4.84612076      -0.75770333
C       -6.06258295      -3.86786171      -0.08198636
C       -6.89652543      -4.84330657      -0.85982655
S       -7.04405660      -6.47445593      -0.33490347
C       -8.15792873      -6.84635654      -1.57860041
C       -8.41145238      -5.75026461      -2.36254149
C       -7.68556156      -4.59828505      -1.96994494
H        0.54416821      -1.03800041      -2.49910018
H       -2.53784298      -0.92397131       0.50101595
H       -2.81753831      -4.58123503      -0.89308402
H       -4.19123599      -5.45787451      -1.60440614
H       -3.94743647      -5.42532686       0.16708645
H       -6.61101355      -2.92048724      -0.02930264
H       -5.92101374      -4.19558888       0.95496003
H       -8.57662906      -7.84005904      -1.65887721
H       -7.75252624      -3.62705053      -2.44651013
C       -9.33292439      -5.73326558      -3.46897737
C      -10.10465720      -5.71902888      -4.39561742
Br     -11.35248388      -5.69600935      -5.89391602
C       -0.87839897       0.87839897       0.87839897
C       -1.17949227       2.17981436       0.50811978
N       -1.92537631       3.02227780       1.26435590
C       -2.38526782       2.54063776       2.44731822
Cl      -3.21173725       3.73125110       3.37168224
C       -2.17443278       1.23913722       2.87698223
C       -1.38415429       0.39840649       2.08040667
C       -2.61529894       0.72511617       4.17957395
O       -1.71585124       0.34531946       4.92974023
N       -3.96899553       0.60514849       4.49231033
C       -5.06323205       0.85049855       3.55691740
C       -4.30813220      -0.05409149       5.75839031
C       -5.28680722       0.73497437       6.57787695
S       -6.95785354       0.32821743       6.56734502
C       -7.32458067       1.51396468       7.74434033
C       -6.19801471       2.19086391       8.13537986
C       -5.02454378       1.76355237       7.46569540
H       -0.81138206       2.60423872      -0.42268840
H       -1.15045004      -0.60862424       2.41897254
H       -4.70919412       1.03980371       2.54285953
H       -5.63600542       1.71646465       3.90104657
H       -5.71163588      -0.03025247       3.52429347
H       -3.41208935      -0.21881077       6.36752484
H       -4.69734425      -1.04986969       5.51416802
H       -8.33931494       1.64047077       8.09577960
H       -4.02975428       2.15776630       7.63856633
C       -6.17298631       3.22388779       9.13829324
C       -6.15202502       4.08904528       9.97823320
Br      -6.11813240       5.48793178      11.33634507
C        0.87839897      -0.87839897       0.87839897
C        1.23044768      -0.47880238       2.15817636
N        2.03848537      -1.19927815       2.97424649
C        2.51982002      -2.36990308       2.48350071
Cl       3.62545099      -3.13365038       3.55556923
C        2.18375574      -2.87161823       1.23517826
C        1.36033167      -2.09411311       0.40852267
C        2.74412812      -4.10545157       0.67040938
O        3.39266697      -3.96497755      -0.36673360
N        2.47715310      -5.35064787       1.23865338
C        1.54905838      -5.57881135       2.34277827
C        2.96101265      -6.53346096       0.51795741
C        3.71193672      -7.48398503       1.40373680
S        2.93507129      -8.88186897       2.03647574
C        4.37895617      -9.43911724       2.76481228
C        5.42129570      -8.58226826       2.52069451
C        5.05069182      -7.45065102       1.75244871
H        0.87927070       0.46174840       2.57541008
H        1.12777597      -2.43201816      -0.59899579
H        0.99782453      -4.67821095       2.61582189
H        2.11250471      -5.92830687       3.21270506
H        0.81965155      -6.33891632       2.04710900
H        3.62193337      -6.24679024      -0.30792019
H        2.08966234      -7.01450830       0.05747195
H        4.38954350     -10.36829648       3.31772532
H        5.72546590      -6.66293183       1.43768918
C        6.77347792      -8.79279798       2.96889143
C        7.90593053      -8.96911661       3.34425636
Br       9.73701062      -9.25420893       3.95118970
