109
Properties=species:S:1:pos:R:3 pbc="F F F"
C        0.00000000       0.00000000       0.00000000
C        0.87839897       0.87839897      -0.87839897
C        2.20005655       1.12580515      -0.54156471
N        3.02139760       1.92771081      -1.26290160
C        2.49272145       2.51235335      -2.36814900
Cl       3.58562465       3.59797351      -3.13107244
C        1.19724222       2.28554833      -2.80776167
C        0.36781863       1.46528062      -2.02986820
C        0.59610150       2.95747676      -3.96641080
O       -0.38665450       3.65722160      -3.72034383
N        1.06950053       2.73742265      -5.25953117
C        2.09564116       1.76081544      -5.61419140
C        0.31120026       3.33929092      -6.36193984
C        1.18436406       4.09491806      -7.32037643
S        1.67988346       3.37291129      -8.80062124
C        2.46471599       4.80296033      -9.31520936
C        2.34064818       5.80075092      -8.38285938
Br       3.02273316       7.54672716      -8.58808364
C        1.62004501       5.40515971      -7.22858684
H        2.64996843       0.69009591       0.34713195
H       -0.67120700       1.31643452      -2.31557082
H        2.38661007       1.13714091      -4.76810639
H        2.97732264       2.29190787      -5.98428614
H        1.70807280       1.10118066      -6.39642342
H       -0.45146704       4.02914955      -5.98312092
H       -0.23279154       2.53025720      -6.86417694
H        2.95987695       4.83993353     -10.27575482
H        1.39772702       6.04556058      -6.38279930
C       -0.87839897      -0.87839897      -0.87839897
C       -0.61382048      -1.02214314      -2.23146280
N       -1.37957845      -1.76031991      -3.07211165
C       -2.46222359      -2.37738887      -2.53361134
Cl      -3.42195379      -3.18065944      -3.71205737
C       -2.77747250      -2.32900280      -1.18407692
C       -1.97593089      -1.54266200      -0.34437457
C       -3.97715681      -2.94205997      -0.60077229
O       -4.76406604      -2.15984144      -0.06700345
N       -4.15263043      -4.32544213      -0.58838178
C       -3.15116874      -5.29440054      -1.02507871
C       -5.31088009      -4.84719792       0.14564698
C       -6.11293537      -5.82717810      -0.65954508
S       -5.91081311      -7.51878586      -0.42381703
C       -7.16198847      -7.89208712      -1.52881009
C       -7.71879441      -6.75345433      -2.05200974
Br      -9.15782237      -6.72934925      -3.27037234
C       -7.11882174      -5.56263463      -1.57233518
H        0.23296337      -0.52630351      -2.69959225
H       -2.23229787      -1.43590238       0.70740192
H       -2.19720910      -4.82548879      -1.26915948
H       -3.52656830      -5.81788240      -1.90906594
H       -2.97248507      -6.01334723      -0.21984458
H       -5.97914587      -4.03485238       0.45319481
H       -4.93451918      -5.29864825       1.07152485
H       -7.43102086      -8.92114226      -1.72340219
H       -7.41937433      -4.55843415      -1.84827842
C       -0.87839897       0.87839897       0.87839897
C       -2.12750612       1.29483353       0.44508676
N       -2.94014999       2.10647061       1.16538941
C       -2.47770790       2.52403005       2.37148584
Cl      -3.53649380       3.64118299       3.13699381
C       -1.26339183       2.12095062       2.90620978
C       -0.43853159       1.29567723       2.12875864
C       -0.72653370       2.61217324       4.18128213
O        0.33890640       3.22458994       4.10522739
N       -1.35252098       2.32101661       5.39291676
C       -2.49875589       1.42877480       5.54311731
C       -0.66084623       2.73167290       6.61991189
C       -1.55421141       3.48036478       7.56508236
S       -2.26968913       2.67684975       8.90687712
C       -2.96449985       4.12610676       9.49227906
C       -2.64820836       5.18955637       8.68649375
Br      -3.17855971       6.97018441       9.00879985
C       -1.85086950       4.83200687       7.57091518
H       -2.52063091       0.99573980      -0.52343833
H        0.54560585       1.01149258       2.49491161
H       -2.75696782       0.92279536       4.61209419
H       -3.35989045       2.01220186       5.88142433
H       -2.26053470       0.66038093       6.28476125
H        0.19980377       3.37017835       6.39042885
H       -0.25249558       1.82558946       7.08355755
H       -3.55243870       4.12336784      10.39975876
H       -1.48053007       5.52308063       6.82247620
C        0.87839897      -0.87839897       0.87839897
C        0.49182695      -1.20730584       2.16829363
N        1.24646928      -1.95463694       3.01090379
C        2.44474172      -2.38684794       2.54163415
Cl       3.36308025      -3.21780373       3.73378661
C        2.89219529      -2.14719475       1.25116218
C        2.09645256      -1.35617499       0.41033991
C        4.21027887      -2.55787268       0.75183752
O        4.95142978      -1.63995473       0.39952642
N        4.54757791      -3.90403472       0.61484172
C        3.62672865      -5.01748712       0.82643223
C        5.82984815      -4.21118044      -0.02859757
C        6.65250212      -5.18930202       0.75785441
S        6.67666151      -6.85324798       0.32350650
C        7.83994165      -7.22034531       1.52259873
C        8.20085422      -6.09898596       2.22441829
Br       9.49097457      -6.06724316       3.59932623
C        7.51873938      -4.92971353       1.80533864
H       -0.45188121      -0.86173884       2.58307475
H        2.44759935      -1.10009156      -0.58689258
H        2.60390255      -4.68342191       1.00453291
H        3.96609122      -5.59893752       1.68848790
H        3.61948214      -5.65149791      -0.06530317
H        6.42652033      -3.30259188      -0.16830878
H        5.60861535      -4.58763004      -1.03460279
H        8.20619557      -8.23112917       1.63824056
H        7.66840728      -3.93895349       2.21872613
