182
Properties=species:S:1:pos:R:3 pbc="F F F"
C        1.79112639       1.79112639      -1.79112639
C        2.48922599       1.23233344      -2.85346590
C        3.30960963       2.04382182      -3.64509982
C        3.45943990       3.42945403      -3.41007899
C        2.71858449       3.95309148      -2.32924218
C        1.89931624       3.15067094      -1.52548250
C        4.42633024       4.32142824      -4.29866850
C        4.95074914       5.70622591      -3.80963419
C        6.32640228       5.37294435      -4.41692269
C        5.93190144       3.88653043      -4.34766726
N        3.98614701       4.41921343      -5.70786392
C        2.69910592       5.08211343      -5.84840437
N        2.37039654       5.06072227      -7.24798379
C        1.56459180       4.09047681      -7.82344398
O        1.02495130       3.13527279      -7.31097453
C        1.49135271       4.45634591      -9.32473562
O        0.88475022       3.87417590     -10.19400193
C        2.31251799       5.65546743      -9.47634830
C        2.58296047       6.39124869     -10.61436903
C        3.41306387       7.50301625     -10.46603987
C        3.94208566       7.83164286      -9.20210377
Br       5.06723754       9.34559324      -9.04269222
C        3.65488777       7.06831214      -8.06214450
C        2.82348802       5.97457470      -8.21700259
H        2.40994133       0.17130545      -3.07522973
H        3.85465111       1.58188161      -4.46731710
H        2.78692071       5.01372332      -2.09443565
H        1.35848823       3.59755198      -0.69539822
H        4.99544434       5.80448149      -2.71717075
H        4.47737816       6.61029903      -4.20166816
H        6.46525781       5.75000567      -5.43628791
H        7.19128363       5.66046928      -3.81350266
H        6.25345647       3.27112327      -5.19404160
H        6.27910215       3.39904088      -3.42706373
H        3.89028719       3.50197468      -6.14250026
H        2.71725800       6.12086062      -5.50482194
H        1.90829515       4.55679718      -5.30313370
H        2.16598619       6.11355028     -11.57739700
H        3.64949749       8.11175179     -11.33691438
H        4.07907613       7.32780738      -7.09844179
C       -1.79112639      -1.79112639      -1.79112639
C       -2.09102886      -1.39593514      -3.08806133
C       -2.91494432      -2.20049664      -3.88309032
C       -3.46170661      -3.41837591      -3.41889040
C       -3.11609268      -3.78425121      -2.10057427
C       -2.29802883      -2.98490002      -1.29254083
C       -4.42513444      -4.29429151      -4.32700101
C       -5.37701394      -5.36990176      -3.71969355
C       -6.46738407      -4.93296183      -4.71592341
C       -5.72516652      -3.59095032      -4.84998229
N       -3.74892577      -4.83955713      -5.52474146
C       -2.67574458      -5.76289428      -5.19098486
N       -2.07602989      -6.17050630      -6.43256641
C       -0.94781248      -5.56583142      -6.96486868
O       -0.29541964      -4.64065178      -6.53512719
C       -0.66874523      -6.31372518      -8.28996384
O        0.23070295      -6.11108118      -9.07254982
C       -1.72316494      -7.31912478      -8.40204401
C       -1.93784424      -8.25303416      -9.39769979
C       -3.03896024      -9.09669912      -9.24646063
C       -3.87968916      -8.97371235      -8.12243078
Br      -5.36555307     -10.13462393      -7.95534601
C       -3.64246552      -8.01667503      -7.12620386
C       -2.54345463      -7.19198944      -7.27962124
H       -1.69736370      -0.46696426      -3.49214855
H       -3.14393088      -1.86585028      -4.89406866
H       -3.50195714      -4.71170112      -1.68142141
H       -2.07073068      -3.30243682      -0.27827093
H       -5.66602772      -5.17172365      -2.67934520
H       -5.08370827      -6.42103322      -3.78460386
H       -6.48923884      -5.52406628      -5.63824627
H       -7.48088357      -4.87353250      -4.31083950
H       -5.69854056      -3.16286923      -5.85721154
H       -6.11393523      -2.82249918      -4.16877235
H       -3.33356299      -4.10470893      -6.09649022
H       -3.03060442      -6.65177160      -4.66056454
H       -1.90368054      -5.28624274      -4.57830274
H       -1.27709368      -8.32376181     -10.25607798
H       -3.24287630      -9.84854882     -10.00673853
H       -4.30546972      -7.92711586      -6.27273972
C       -1.79112639       1.79112639       1.79112639
C       -2.37204346       2.93756536       1.26541650
C       -3.16340171       3.75003021       2.08509936
C       -3.40439626       3.44958267       3.44499399
C       -2.80524800       2.26704558       3.92862457
C       -2.00590319       1.44898726       3.12057923
C       -4.27428786       4.40778614       4.36435296
C       -4.19118100       4.35476045       5.92066779
C       -4.27021064       5.89260865       5.95345001
C       -3.78184300       5.89071948       4.49353664
N       -5.68909524       4.48569339       3.93843572
C       -6.37733086       3.20861883       4.04367403
N       -7.71296245       3.41373535       3.55240480
C       -8.09213233       3.13876390       2.24761636
O       -7.42981304       2.71433846       1.32704711
C       -9.59150690       3.51142343       2.16950392
O      -10.32189865       3.42115677       1.20987262
C       -9.94386547       3.99948893       3.50097933
C      -11.15992193       4.45886217       3.96979409
C      -11.20912070       4.87097203       5.30202726
C      -10.05345366       4.81610206       6.10627657
Br     -10.16010214       5.38764922       7.90777165
C       -8.83015586       4.34796223       5.60722632
C       -8.79354652       3.93241576       4.28910302
H       -2.21612032       3.21433103       0.22602515
H       -3.60138242       4.64908277       1.65338463
H       -2.95207391       1.97590863       4.96709714
H       -1.55443938       0.55476816       3.54223090
H       -3.23134932       3.98322505       6.30252221
H       -4.98440673       3.83778430       6.46715432
H       -5.28590060       6.28268805       6.08296274
H       -3.60914123       6.38433176       6.67178258
H       -4.24401782       6.63617393       3.83842959
H       -2.69243749       6.00113836       4.41163091
H       -5.77988786       4.78637316       2.96850112
H       -6.43125728       2.83936190       5.07232138
H       -5.90151710       2.43728135       3.42942758
H      -12.03431930       4.49509957       3.32751461
H      -12.14839440       5.23743282       5.71233643
H       -7.94687311       4.32260434       6.23584785
C        1.79112639      -1.79112639       1.79112639
C        2.18791768      -3.04408861       1.34301904
C        2.98034888      -3.85340665       2.16477575
C        3.40440641      -3.44489593       3.44967058
C        2.98849038      -2.15848621       3.85394156
C        2.19006708      -1.34153897       3.04386363
C        4.27090871      -4.39699593       4.37852233
C        4.37179614      -4.17590883       5.91890428
C        4.29631745      -5.70125590       6.11869597
C        3.64732372      -5.79300541       4.72577000
N        5.61243367      -4.67899363       3.82179706
C        6.43518764      -3.48477218       3.70966390
N        7.67800188      -3.89012715       3.11097357
C        7.93193425      -3.79514463       1.75143371
O        7.21581096      -3.39432702       0.86106063
C        9.36656290      -4.34248371       1.56338763
O        9.98805913      -4.43479334       0.53007558
C        9.81676449      -4.72878658       2.89878266
C       11.02496011      -5.27353776       3.29008032
C       11.18343933      -5.55011166       4.64856900
C       10.13880783      -5.28174734       5.55527712
Br      10.39129501      -5.67442714       7.38980086
C        8.92090307      -4.73059979       5.13384154
C        8.77682618      -4.45062306       3.78761606
H        1.88692128      -3.40611838       0.36343685
H        3.27192444      -4.83597914       1.79594624
H        3.28186229      -1.78131084       4.83190654
H        1.88352496      -0.36323372       3.40467975
H        3.50488157      -3.66017531       6.35203969
H        5.27089516      -3.69964961       6.31880058
H        5.27488468      -6.18937750       6.18728921
H        3.67472320      -6.03825470       6.95227767
H        3.95302916      -6.64940700       4.11618519
H        2.55014511      -5.78618849       4.76887316
H        5.56071801      -5.08570217       2.88834196
H        6.64362763      -3.02080410       4.67850883
H        5.97380843      -2.73108663       3.06333097
H       11.81203251      -5.47482558       2.57007539
H       12.12095024      -5.97744960       4.99976382
H        8.12237884      -4.54044623       5.84250022
C       -0.00445707       0.01189536      -1.78238275
H       -0.66409135       0.67374010      -2.43557963
H        0.65740317      -0.63156657      -2.45157240
C       -0.90989263      -0.90692880      -0.91072765
C        0.90977584       0.90977584      -0.90977584
C       -0.00465871       1.77757030       0.00794375
H       -0.66225468       2.44313916      -0.64384735
H        0.64322798       2.43503045       0.67728295
C       -1.78241447       0.00034974      -0.00472694
H       -2.45427497      -0.65498947       0.64260836
H       -2.43311707       0.67328779      -0.65473579
C       -0.91132561       0.90220522       0.91563759
C       -0.01476271      -0.02253852       1.78660255
H       -0.67934791      -0.69751639       2.42135241
H        0.63392994       0.61504881       2.47327442
C        0.01484550      -1.77751727      -0.01636693
H        0.67870853      -2.42144646      -0.68295456
H       -0.62264859      -2.45592969       0.64226336
C        1.78714474       0.01002794       0.00389507
H        2.44202412       0.67113390       0.66197326
H        2.45385902      -0.65136977      -0.64189061
C        0.91606151      -0.90478549       0.90901405
