169
Properties=species:S:1:pos:R:3 pbc="F F F"
C        0.00000000       0.00000000       0.00000000
C        0.88122237       0.88122237      -0.88122237
C        1.57932196       0.32242941      -1.94356188
C        2.39970561       1.13391780      -2.73519580
C        2.54953587       2.51955000      -2.50017497
C        1.80868046       3.04318746      -1.41933815
C        0.98941222       2.24076692      -0.61557847
C        3.51642621       3.41152421      -3.38876447
C        4.04084512       4.79632188      -2.89973017
C        5.41649825       4.46304033      -3.50701866
C        5.02199742       2.97662640      -3.43776323
N        3.07624299       3.50930940      -4.79795989
C        1.78920190       4.17220941      -4.93850035
N        1.46049251       4.15081824      -6.33807977
C        0.65468777       3.18057279      -6.91353995
O        0.11504728       2.22536876      -6.40107050
C        0.58144868       3.54644189      -8.41483160
O       -0.02515381       2.96427187      -9.28409791
C        1.40261397       4.74556341      -8.56644427
C        1.67305645       5.48134466      -9.70446500
C        2.50315984       6.59311222      -9.55613585
C        3.03218163       6.92173884      -8.29219975
C        2.74498374       6.15840812      -7.15224047
C        1.91358400       5.06467067      -7.30709856
H        1.50003730      -0.73859857      -2.16532571
H        2.94474709       0.67197759      -3.55741307
H        1.87701669       4.10381930      -1.18453162
H        0.44858421       2.68764796       0.21450580
H        4.08554031       4.89457747      -1.80726672
H        3.56747413       5.70039501      -3.29176414
H        5.55535378       4.84010165      -4.52638389
H        6.28137960       4.75056526      -2.90359864
H        5.34355244       2.36121924      -4.28413758
H        5.36919813       2.48913685      -2.51715971
H        2.98038317       2.59207066      -5.23259624
H        1.80735397       5.21095660      -4.59491792
H        0.99839112       3.64689316      -4.39322967
H        1.25608217       5.20364626     -10.66749298
H        2.73959346       7.20184776     -10.42701035
H        3.16917210       6.41790336      -6.18853777
C        3.88808456       8.07340074      -8.17093540
C        4.60490325       9.03791759      -8.06937651
Br       5.76393846      10.59745975      -7.90516437
C       -0.88122237      -0.88122237      -0.88122237
C       -1.04397935      -0.57543284      -2.22590105
C       -1.86851151      -1.37766875      -3.02263894
C       -2.55147200      -2.50512295      -2.51266590
C       -2.34249212      -2.78355467      -1.14515929
C       -1.52523344      -1.98493066      -0.33559351
C       -3.51179273      -3.37692308      -3.42799908
C       -4.59626864      -4.31917827      -2.82145025
C       -5.56419304      -3.88446953      -3.93789466
C       -4.70238504      -2.62095736      -4.11304466
N       -2.79268097      -4.07328484      -4.51754648
C       -1.83130293      -5.04609433      -4.02251439
N       -1.17303990      -5.60346185      -5.17288878
C        0.04069175      -5.13641834      -5.65307393
O        0.73370356      -4.23199101      -5.24319909
C        0.35807163      -6.01378040      -6.88701339
O        1.32999186      -5.94943559      -7.60377223
C       -0.76596390      -6.93941249      -7.00924526
C       -0.98062741      -7.93488369      -7.94335501
C       -2.15791653      -8.67382724      -7.82066415
C       -3.07056735      -8.39029883      -6.78525403
C       -2.83158946      -7.37357126      -5.85047161
C       -1.65783398      -6.65350024      -5.97401901
H       -0.54235323       0.28214506      -2.66655626
H       -1.98836339      -1.11326556      -4.07250879
H       -2.83742012      -3.63895204      -0.68899544
H       -1.40586211      -2.23192697       0.71606272
H       -4.94795771      -4.01127264      -1.82815416
H       -4.38918873      -5.39174941      -2.77869514
H       -5.56392831      -4.54829707      -4.80961393
H       -6.59756776      -3.71165350      -3.62632224
H       -4.56068885      -2.28344048      -5.14477994
H       -5.07656977      -1.76931459      -3.52961033
H       -2.27287503      -3.42447858      -5.10769645
H       -2.30086740      -5.85614771      -3.45621338
H       -1.07186891      -4.58101053      -3.38563451
H       -0.26310699      -8.12983176      -8.73428265
H       -2.36484379      -9.46929487      -8.53431291
H       -3.54936305      -7.16015906      -5.06609112
C       -4.27830389      -9.16818538      -6.68593143
C       -5.28978324      -9.81966536      -6.60274875
Br      -6.92525980     -10.87305339      -6.46824940
C       -0.88122237       0.88122237       0.88122237
C       -1.53049698       1.98022135       0.33459492
C       -2.32160009       2.79384010       1.15337901
C       -2.49475382       2.54130722       2.53319981
C       -1.82745880       1.40523873       3.03850854
C       -1.02767866       0.58684671       2.23123223
C       -3.36636087       3.50143868       3.44891535
C       -3.21843810       3.51722156       5.00123751
C       -3.36060565       5.05065333       4.97529825
C       -2.93183089       5.00713195       3.49742422
N       -4.79920849       3.50429831       3.08000549
C       -5.42839502       2.20606934       3.26544729
N       -6.79017832       2.33636888       2.82284332
C       -7.20974721       1.99177651       1.54727679
O       -6.56782919       1.55610054       0.61755681
C       -8.72538010       2.30008859       1.51725348
O       -9.48942121       2.14022868       0.59356608
C       -9.04397389       2.82904918       2.84159858
C      -10.25836658       3.25831972       3.34217982
C      -10.27109382       3.72370461       4.65760948
C       -9.08266545       3.74928899       5.41416578
C       -7.86189417       3.31028864       4.88344952
C       -7.86102195       2.84155818       3.58277311
H       -1.42835732       2.21914549      -0.72073838
H       -2.81400130       3.65558149       0.70455495
H       -1.91995006       1.15229577       4.09312177
H       -0.52242583      -0.26994863       2.66924916
H       -2.22923756       3.20104249       5.35710445
H       -3.96657745       2.99210368       5.60095215
H       -4.38573720       5.40457213       5.13152999
H       -2.69235736       5.59835963       5.64482651
H       -3.45093786       5.70517751       2.83279389
H       -1.85221203       5.15783349       3.36544917
H       -4.94157109       3.76006909       2.10340989
H       -5.42525913       1.87847065       4.30949871
H       -4.94574830       1.42941853       2.66334713
H      -11.15869121       3.23227449       2.73625570
H      -11.20762874       4.06891905       5.09190379
H       -6.95370670       3.34697940       5.47492713
C       -9.12668103       4.23761750       6.76812216
C       -9.16354408       4.64659263       7.90206064
Br      -9.22314852       5.30787082       9.73554324
C        0.88122237      -0.88122237       0.88122237
C        0.90473573      -2.25565700       0.68492053
C        1.70105632      -3.05842361       1.50933927
C        2.49769942      -2.52415694       2.54740449
C        2.45180191      -1.12180012       2.69760405
C        1.65413103      -0.30804848       1.88357810
C        3.36280305      -3.45983773       3.49407412
C        3.87851351      -2.97483236       4.88355131
C        3.55894299      -4.36641054       5.46120371
C        2.58382986      -4.56577350       4.28678370
N        4.44603650      -4.16422939       2.77324639
C        5.43246349      -3.25295725       2.21449091
N        6.38766641      -4.05853884       1.50318528
C        6.31473155      -4.29493916       0.13912980
O        5.49463437      -3.91222208      -0.66536991
C        7.52498168      -5.20242871      -0.18468822
O        7.84456915      -5.64319625      -1.26454943
C        8.20418398      -5.41972009       1.09071758
C        9.34159167      -6.15664220       1.36063225
C        9.77068712      -6.19383806       2.68788273
C        9.05244378      -5.50694510       3.68673134
C        7.89968440      -4.76743503       3.38851290
C        7.48793190      -4.72814469       2.06927665
H        0.30872719      -2.71648144      -0.09844420
H        1.69662612      -4.13485217       1.34265946
H        3.04311891      -0.64503823       3.47721046
H        1.64155390       0.76642934       2.04660180
H        3.26134416      -2.18857838       5.33746196
H        4.92305315      -2.66460993       4.97197020
H        4.41029382      -5.05614214       5.45540335
H        3.10687540      -4.37227265       6.45639544
H        2.55846529      -5.57264907       3.85779491
H        1.55350122      -4.28247944       4.53951403
H        4.08941070      -4.71950827       1.99613110
H        5.95775853      -2.67474679       2.98072317
H        4.98270181      -2.54990133       1.50591081
H        9.87390989      -6.68048309       0.57282843
H       10.66400491      -6.76080724       2.94363942
H        7.35154609      -4.25357609       4.17049106
C        9.51819758      -5.56618197       5.04804114
C        9.90826640      -5.61579285       6.18813810
Br      10.53897468      -5.69600944       8.03157846
