137
Properties=species:S:1:pos:R:3 pbc="F F F"
C        0.00000000       0.00000000       0.00000000
C        0.88186082       0.88186082      -0.88186082
C        0.43652886       2.14667566      -1.26035089
C        1.24319011       2.95390129      -2.06605169
C        2.50155680       2.50251735      -2.49167691
C        2.93077055       1.22272581      -2.10777215
C        2.12447493       0.41508725      -1.30319683
C        3.37403422       3.36812108      -3.37276779
C        3.12981062       3.15270825      -4.83091023
C        2.27306602       3.81857520      -5.68432625
N        2.29887373       3.40343559      -7.00221121
C        3.14994284       2.41277537      -7.13047149
S        3.98087092       1.95555503      -5.71770566
N        3.37383032       1.83591537      -8.35356597
C        4.15383361       0.73628840      -8.62077206
O        4.72036667       0.00645996      -7.81830922
C        4.26199022       0.40049374     -10.06942966
C        4.35059176       1.39959765     -11.04957541
C        4.46048030       1.04656695     -12.39751949
C        4.48766537      -0.29959065     -12.76242181
Br       4.63682148      -0.77144102     -14.58670176
C        4.41518733      -1.29892856     -11.79289941
C        4.30881930      -0.94853086     -10.44461704
H       -0.53463125       2.51140151      -0.93653768
H        0.88200812       3.93741062      -2.35832068
H        3.89670224       0.84435828      -2.43776223
H        2.47359640      -0.57313780      -1.01615673
H        4.42955851       3.19283465      -3.12708589
H        3.19723226       4.42353329      -3.12538002
H        1.60939849       4.62658274      -5.39966578
H        2.82273938       2.25875602      -9.08633264
H        4.36745627       2.45246328     -10.77982569
H        4.53542600       1.82568780     -13.15256245
H        4.44595719      -2.34887741     -12.07303745
H        4.26149619      -1.72890916      -9.68669933
C       -0.88186082      -0.88186082      -0.88186082
C       -2.15836781      -0.44967016      -1.23551743
C       -2.96482457      -1.25546725      -2.04285127
C       -2.49603857      -2.49427502      -2.50543747
C       -1.21092952      -2.91751221      -2.13282678
C       -0.40476616      -2.11287461      -1.32511824
C       -3.36907270      -3.37510378      -3.37074661
C       -4.21262563      -4.32109643      -2.57970704
C       -5.50133094      -4.16438610      -2.11025043
N       -6.02657154      -5.24712677      -1.43082222
C       -5.12640680      -6.19990755      -1.36687535
S       -3.64257454      -5.87698325      -2.13457382
N       -5.41250607      -7.39371132      -0.75709428
C       -4.54625222      -8.43601251      -0.52862935
O       -3.34071752      -8.46787924      -0.73653908
C       -5.18208882      -9.63622643       0.08640162
C       -6.47142933     -10.05103711      -0.27729837
C       -7.03139121     -11.18707648       0.31390096
C       -6.30245194     -11.90797925       1.25993465
Br      -7.06433069     -13.44377552       2.05602399
C       -5.01425778     -11.51084349       1.61594310
C       -4.45105994     -10.37764693       1.02380139
H       -2.53461986       0.50853517      -0.88722324
H       -3.96108807      -0.90862020      -2.30803116
H       -0.83067135      -3.88131892      -2.46683247
H        0.58754011      -2.45740903      -1.04674641
H       -2.74123510      -3.92198674      -4.08625721
H       -4.01643720      -2.73967981      -3.99002856
H       -6.11251268      -3.27949777      -2.24363657
H       -6.35285790      -7.42427300      -0.39069715
H       -7.03871426      -9.52213701      -1.03889398
H       -8.02907449     -11.50767371       0.02307196
H       -4.43973641     -12.07596633       2.34558552
H       -3.44152204     -10.07276170       1.29499739
C       -0.88186082       0.88186082       0.88186082
C       -2.23150856       0.57334316       1.03870368
C       -3.03814464       1.37905360       1.84594485
C       -2.49738200       2.49327476       2.50509429
C       -1.13790247       2.79397168       2.32939436
C       -0.33138358       1.98948181       1.52189362
C       -3.36862058       3.37483979       3.37146271
C       -4.00078908       4.49755330       2.61508673
C       -5.23162970       4.55197020       1.99236757
N       -5.54856372       5.75842994       1.39752687
C       -4.54892915       6.59502565       1.54923490
S       -3.21439495       6.01106548       2.42867119
N       -4.62638694       7.87416441       1.06276032
C       -3.63029829       8.82114916       1.05944663
O       -2.46306898       8.68226381       1.39980305
C       -4.05142002      10.15002297       0.53047063
C       -5.32266775      10.67752456       0.79957250
C       -5.67885302      11.93120141       0.29451230
C       -4.76534544      12.65614298      -0.47099188
Br      -5.25206064      14.35122609      -1.15120451
C       -3.49424482      12.14537951      -0.73046615
C       -3.13467305      10.89400795      -0.22377551
H       -2.66441419      -0.28785998       0.53675372
H       -4.09120381       1.13003813       1.95649748
H       -0.69868438       3.66176660       2.81837178
H        0.71913580       2.23813806       1.39761307
H       -2.77733202       3.75945648       4.21269056
H       -4.15231915       2.75983156       3.83399486
H       -5.94729918       3.73938445       1.94896338
H       -5.50580572       8.05942002       0.60260230
H       -6.03319537      10.14228331       1.42426657
H       -6.66372915      12.33797902       0.51196807
H       -2.77654577      12.71198537      -1.31841391
H       -2.13879556      10.49913845      -0.41864766
C        0.88186082      -0.88186082       0.88186082
C        0.36863491      -2.06443905       1.41048145
C        1.17516099      -2.87174079       2.21624132
C        2.50057221      -2.50333770       2.49184115
C        2.99856375      -1.30487717       1.95782759
C        2.19253807      -0.49710486       1.15311608
C        3.37441375      -3.36827288       3.37223646
C        3.28356030      -3.01000720       4.81986161
C        2.45574322      -3.52082600       5.79939826
N        2.63673342      -3.00083868       7.06694843
C        3.57596467      -2.08496853       7.03225650
S        4.30949729      -1.82568600       5.51894831
N        3.95837933      -1.43057863       8.17435372
C        4.84893846      -0.38843906       8.27351656
O        5.39880804       0.21667340       7.36300119
C        5.11696051       0.05623720       9.67119031
C        5.21086241      -0.86113475      10.72776765
C        5.47283078      -0.40795225      12.02378370
C        5.64598396       0.95588900      12.26040158
Br       6.00046126       1.56328880      14.01490977
C        5.56907272       1.87290775      11.21299321
C        5.31078730       1.42198739       9.91610558
H       -0.65521154      -2.36460582       1.20391365
H        0.76111350      -3.79011158       2.62651434
H        4.01893037      -0.99017815       2.16971423
H        2.59549183       0.42748697       0.74861048
H        4.41398595      -3.31151628       3.02397682
H        3.08791321      -4.42007799       3.23815437
H        1.70345660      -4.28570770       5.64648271
H        3.44317514      -1.73832782       8.98632509
H        5.11469894      -1.93000901      10.55503730
H        5.55101410      -1.12465116      12.83801099
H        5.71320876       2.93539909      11.39230756
H        5.25985542       2.13716543       9.09659636
