145
Properties=species:S:1:pos:R:3 pbc="F F F"
C        0.00000000       0.00000000       0.00000000
C        0.88186082       0.88186082      -0.88186082
C        0.43652886       2.14667566      -1.26035089
C        1.24319011       2.95390129      -2.06605169
C        2.50155680       2.50251735      -2.49167691
C        2.93077055       1.22272581      -2.10777215
C        2.12447493       0.41508725      -1.30319683
C        3.37403422       3.36812108      -3.37276779
C        3.12981062       3.15270825      -4.83091023
C        2.27306602       3.81857520      -5.68432625
N        2.29887373       3.40343559      -7.00221121
C        3.14994284       2.41277537      -7.13047149
S        3.98087092       1.95555503      -5.71770566
N        3.37383032       1.83591537      -8.35356597
C        4.15383361       0.73628840      -8.62077206
O        4.72036667       0.00645996      -7.81830922
C        4.26199022       0.40049374     -10.06942966
C        4.35059176       1.39959765     -11.04957541
C        4.46048030       1.04656695     -12.39751949
C        4.48766537      -0.29959065     -12.76242181
C        4.41518733      -1.29892856     -11.79289941
C        4.30881930      -0.94853086     -10.44461704
H       -0.53463125       2.51140151      -0.93653768
H        0.88200812       3.93741062      -2.35832068
H        3.89670224       0.84435828      -2.43776223
H        2.47359640      -0.57313780      -1.01615673
H        4.42955851       3.19283465      -3.12708589
H        3.19723226       4.42353329      -3.12538002
H        1.60939849       4.62658274      -5.39966578
H        2.82273938       2.25875602      -9.08633264
H        4.36745627       2.45246328     -10.77982569
H        4.53542600       1.82568780     -13.15256245
H        4.44595719      -2.34887741     -12.07303745
H        4.26149619      -1.72890916      -9.68669933
C        4.60129560      -0.65905607     -14.15219618
C        4.69646091      -0.96010836     -15.31613221
Br       4.85033517      -1.44688444     -17.19811833
C       -0.88186082      -0.88186082      -0.88186082
C       -2.16351298      -0.45583473      -1.22420769
C       -2.96997992      -1.26162606      -2.03153711
C       -2.49611264      -2.49421307      -2.50542535
C       -1.20579198      -2.91135402      -2.14412251
C       -0.39960828      -2.10672655      -1.33642417
C       -3.36904402      -3.37509247      -3.37078660
C       -4.20106304      -4.33186692      -2.58049915
C       -5.48762754      -4.18682165      -2.10151829
N       -6.00118719      -5.27748720      -1.42584614
C       -5.09434996      -6.22466875      -1.37417098
S       -3.61781317      -5.88683624      -2.14948220
N       -5.36850853      -7.42434444      -0.77045870
C       -4.49389716      -8.46235334      -0.55464357
O       -3.28958608      -8.48483885      -0.77071091
C       -5.11770056      -9.67079670       0.05658363
C       -6.40666322     -10.09175380      -0.30134779
C       -6.95517700     -11.23536416       0.28597443
C       -6.21522850     -11.95763593       1.22236789
C       -4.92734659     -11.55430984       1.57249825
C       -4.37558449     -10.41351446       0.98419346
H       -2.54375792       0.49753099      -0.86708100
H       -3.97024999      -0.91966213      -2.28782730
H       -0.82140921      -3.87038856      -2.48702498
H        0.59677710      -2.44649129      -1.06690114
H       -2.74237804      -3.91305950      -4.09404151
H       -4.02468679      -2.73991004      -3.98154873
H       -6.10550768      -3.30515175      -2.22498758
H       -6.30618364      -7.46356892      -0.39807548
H       -6.98247234      -9.56161954      -1.05565336
H       -7.95263287     -11.56065544      -0.00038794
H       -4.34427457     -12.12040633       2.29456368
H       -3.36630126     -10.10372619       1.25074111
C       -6.78386897     -13.13544361       1.82487687
C       -7.26010536     -14.12185755       2.32947815
Br      -8.03013934     -15.71680545       3.14537573
C       -0.88186082       0.88186082       0.88186082
C       -2.21635571       0.53870339       1.08849630
C       -3.02294598       1.34443298       1.89576414
C       -2.49703099       2.49351194       2.50520813
C       -1.15303044       2.82857356       2.27966451
C       -0.34660184       2.02405215       1.47210502
C       -3.36872537       3.37492031       3.37127741
C       -4.05655356       4.45515361       2.60172193
C       -5.30624616       4.45449490       2.01522642
N       -5.67690915       5.63255505       1.39505633
C       -4.69903749       6.50237652       1.49177568
S       -3.32216538       5.98478400       2.34718223
N       -4.82945351       7.76336990       0.97048827
C       -3.86302283       8.73868402       0.90918722
O       -2.68262541       8.64453053       1.21797990
C       -4.33955166      10.03798165       0.35438032
C       -5.61773085      10.53580197       0.64623199
C       -6.02640133      11.76260211       0.11556329
C       -5.15815432      12.49056578      -0.69822356
C       -3.88034597      12.00975586      -0.98094365
C       -3.46831389      10.78540785      -0.44881625
H       -2.63755102      -0.34965339       0.62541030
H       -4.06427847       1.06803931       2.04542164
H       -0.72610912       3.72330896       2.72940467
H        0.69180057       2.29959663       1.30881927
H       -2.76488705       3.80204255       4.18254945
H       -4.11951138       2.75143330       3.87520089
H       -5.99794977       3.62028649       2.01741075
H       -5.72722151       7.90868311       0.53192343
H       -6.29306070       9.99907130       1.30761324
H       -7.01632640      12.14665810       0.35069174
H       -3.19772086      12.57914658      -1.60675022
H       -2.46709414      10.41425648      -0.66206426
C       -5.58294312      13.75417798      -1.24268539
C       -5.93870373      14.81245320      -1.69867217
Br      -6.51393856      16.52359472      -2.43596423
C        0.88186082      -0.88186082       0.88186082
C        0.34652004      -2.02470048       1.47233488
C        1.15298965      -2.83202873       2.27812471
C        2.50014711      -2.50364793       2.49195603
C        3.02064390      -1.34457296       1.89605164
C        2.21473004      -0.53675575       1.09127322
C        3.37455335      -3.36835941       3.37201033
C        3.35069954      -2.95513454       4.80759503
C        2.54216312      -3.39916947       5.83463488
N        2.78888614      -2.84105463       7.07457976
C        3.75849353      -1.96269470       6.97200146
S        4.44391836      -1.78553403       5.42467922
N        4.20652382      -1.28238165       8.07440620
C        5.13705739      -0.27129348       8.10254321
O        5.67398451       0.27975754       7.15090887
C        5.47284099       0.21304399       9.47211662
C        5.57304107      -0.66860762      10.55811612
C        5.89929320      -0.17920480      11.82606873
C        6.13007853       1.18485430      12.00527230
C        6.04717559       2.06584912      10.92783171
C        5.72465030       1.57853670       9.65879188
H       -0.69444924      -2.29370267       1.31405450
H        0.72177977      -3.71897045       2.73698920
H        4.05885894      -1.06073701       2.05922680
H        2.63529989       0.35701982       0.63833526
H        4.40178031      -3.36297672       2.98472202
H        3.04561713      -4.41288680       3.28764164
H        1.75768065      -4.14046239       5.73750397
H        3.71123205      -1.54130505       8.91529095
H        5.43213101      -1.73867036      10.42894388
H        5.98197177      -0.86858064      12.66312383
H        6.23600988       3.12798490      11.06209225
H        5.66893487       2.26518732       8.81553880
C        6.46625743       1.68495022      13.31312849
C        6.74780726       2.10378055      14.40845805
Br       7.20304952       2.78099378      16.17951331
