166
Properties=species:S:1:pos:R:3 pbc="F F F"
C        1.79176484       1.79176484      -1.79176484
C        1.34643288       3.05657968      -2.17025491
C        2.15309413       3.86380531      -2.97595572
C        3.41146082       3.41242138      -3.40158093
C        3.84067457       2.13262983      -3.01767617
C        3.03437895       1.32499128      -2.21310085
C        4.28393825       4.27802511      -4.28267181
C        4.03971465       4.06261228      -5.74081425
C        3.18297005       4.72847923      -6.59423027
N        3.20877776       4.31333961      -7.91211523
C        4.05984686       3.32267939      -8.04037551
S        4.89077495       2.86545905      -6.62760969
N        4.28373435       2.74581940      -9.26347000
C        5.06373764       1.64619242      -9.53067609
O        5.63027069       0.91636398      -8.72821324
C        5.17189425       1.31039777     -10.97933368
C        5.26049578       2.30950167     -11.95947943
C        5.37038432       1.95647097     -13.30742351
C        5.39756940       0.61031338     -13.67232584
C        5.32509135      -0.38902454     -12.70280344
C        5.21872332      -0.03862683     -11.35452107
H        0.37527277       3.42130553      -1.84644170
H        1.79191214       4.84731465      -3.26822470
H        4.80660626       1.75426230      -3.34766626
H        3.38350042       0.33676623      -1.92606075
H        5.33946253       4.10273868      -4.03698991
H        4.10713628       5.33343731      -4.03528404
H        2.51930252       5.53648676      -6.30956981
H        3.73264341       3.16866005      -9.99623667
H        5.27736030       3.36236731     -11.68972971
H        5.44533002       2.73559182     -14.06246647
H        5.35586121      -1.43897339     -12.98294148
H        5.17140021      -0.81900514     -10.59660335
C        5.51119962       0.25084796     -15.06210020
C        5.60636493      -0.05020433     -16.22603623
Br       5.76023920      -0.53698042     -18.10802235
C       -1.79176484      -1.79176484      -1.79176484
C       -2.60308704      -1.20780689      -2.76237355
C       -3.40901299      -2.01407084      -3.56977133
C       -3.40251480      -3.40843253      -3.41451581
C       -2.58538869      -3.97907626      -2.42651563
C       -1.78031537      -3.17356480      -1.61859091
C       -4.28106955      -4.28486889      -4.27869672
C       -5.63373510      -4.51998367      -3.68942242
C       -6.80728937      -3.81843158      -3.87995860
N       -7.91309171      -4.30916876      -3.21197213
C       -7.56423702      -5.35642833      -2.50223642
S       -5.93385114      -5.82873705      -2.62125550
N       -8.49216879      -6.04030841      -1.76054655
C       -8.25742191      -7.08469276      -0.89849148
O       -7.17657771      -7.54392548      -0.55434472
C       -9.48990588      -7.67224896      -0.29947086
C      -10.67024667      -7.81625193      -1.04297827
C      -11.80344816      -8.38045968      -0.45037096
C      -11.75402269      -8.80403660       0.87785068
C      -10.58000628      -8.67816192       1.61929795
C       -9.44496882      -8.11771832       1.02806959
H       -2.61712700      -0.12944728      -2.89644572
H       -4.04123938      -1.54550685      -4.32070526
H       -2.57436383      -5.05729917      -2.27687181
H       -1.15425842      -3.63339570      -0.85867328
H       -3.77117847      -5.23810948      -4.46990317
H       -4.38990906      -3.81871364      -5.26723494
H       -6.91714014      -2.94134785      -4.50687110
H       -9.41702353      -5.64267576      -1.83784084
H      -10.71517850      -7.52500599      -2.08927283
H      -12.71394920      -8.49556636      -1.03387275
H      -10.53519376      -9.01618710       2.65155156
H       -8.52539125      -8.02784405       1.60423688
C      -12.92360762      -9.38507491       1.48453475
C      -13.90313500      -9.87169450       1.99263267
Br     -15.48694793     -10.65851722       2.81418402
C       -1.79176484       1.79176484       1.79176484
C       -3.15026826       1.50788806       1.91511116
C       -3.95693532       2.31358673       2.72233311
C       -3.40752660       3.40302557       3.41491095
C       -2.03896601       3.67926206       3.27275250
C       -1.23238625       2.87479108       2.46529375
C       -4.27845795       4.28468417       4.28149304
C       -4.87231233       5.43508508       3.53574378
C       -6.08878901       5.52721596       2.88967458
N       -6.36916769       6.75162267       2.31344224
C       -5.35625109       7.56433695       2.50231372
S       -4.05202162       6.93559921       3.39622285
N       -5.39801362       8.85430758       2.04070255
C       -4.38324674       9.78055178       2.07680763
O       -3.22626411       9.61096246       2.43762134
C       -4.76666156      11.12813479       1.56682935
C       -6.03230648      11.67607118       1.82109922
C       -6.35281213      12.94667683       1.33478984
C       -5.40942935      13.66797087       0.60280839
C       -4.14379261      13.13657536       0.35850228
C       -3.81988897      11.86817188       0.84655670
H       -3.59000459       0.66599484       1.38702058
H       -5.01682837       2.08403814       2.80658499
H       -1.59252152       4.52787551       3.78813779
H       -0.17475778       3.10430839       2.36726124
H       -3.69693059       4.64012628       5.14213425
H       -5.08366704       3.67670276       4.71548784
H       -6.81959515       4.73050591       2.81525802
H       -6.26391730       9.06675499       1.56686783
H       -6.76609649      11.14306702       2.42029381
H       -7.33356959      13.36910647       1.54071226
H       -3.40295736      13.70004615      -0.20317421
H       -2.82835841      11.45696636       0.66367365
C       -5.74350747      14.97679695       0.10384336
C       -6.02329789      16.07293879      -0.31403986
Br      -6.47569535      17.84530744      -0.98972167
C        1.79176484      -1.79176484       1.79176484
C        1.24865246      -2.40669868       2.91791633
C        2.05460865      -3.21410440       3.72414211
C        3.40575931      -3.41536782       3.40433601
C        3.93823163      -2.78177252       2.27097642
C        3.13330519      -1.97388638       1.46527952
C        4.28514008      -4.27976564       4.27972944
C        4.96110569      -3.51278976       5.36924572
C        4.55052532      -3.28733179       6.66782243
N        5.42292907      -2.55805480       7.45324874
C        6.46905685      -2.21464182       6.73920310
S        6.48746633      -2.76663499       5.12974236
N        7.49484633      -1.49864942       7.29952799
C        8.59670002      -0.98758600       6.65632014
O        8.83088909      -0.98876731       5.45519152
C        9.57885159      -0.32282802       7.55994609
C        9.86267356      -0.83090937       8.83589395
C       10.79669965      -0.18599855       9.65158060
C       11.44797541       0.95821877       9.19045196
C       11.18251140       1.46107996       7.91743881
C       10.25186930       0.81617732       7.09892557
H        0.20319427      -2.26254638       3.17727936
H        1.61964185      -3.68479314       4.60301650
H        4.98738190      -2.91053097       2.01062196
H        3.56329906      -1.49128796       0.59174039
H        5.02434262      -4.79898439       3.65586411
H        3.67527503      -5.07957187       4.72101074
H        3.62258194      -3.64171929       7.10105786
H        7.33285237      -1.29053696       8.27415079
H        9.39135625      -1.74163677       9.19646429
H       11.01748666      -0.58838126      10.63752040
H       11.69544598       2.34686904       7.55125235
H       10.05130146       1.20353248       6.10122945
C       12.40979607       1.61946179      10.03381350
C       13.21532087       2.17325283      10.74012879
Br      14.51778634       3.06868609      11.88218087
C       -0.00445707       0.01189536      -1.78238275
H       -0.66409135       0.67374010      -2.43557963
H        0.65740317      -0.63156657      -2.45157240
C       -0.90989263      -0.90692880      -0.91072765
C        0.90977584       0.90977584      -0.90977584
C       -0.00465871       1.77757030       0.00794375
H       -0.66225468       2.44313916      -0.64384735
H        0.64322798       2.43503045       0.67728295
C       -1.78241447       0.00034974      -0.00472694
H       -2.45427497      -0.65498947       0.64260836
H       -2.43311707       0.67328779      -0.65473579
C       -0.91132561       0.90220522       0.91563759
C       -0.01476271      -0.02253852       1.78660255
H       -0.67934791      -0.69751639       2.42135241
H        0.63392994       0.61504881       2.47327442
C        0.01484550      -1.77751727      -0.01636693
H        0.67870853      -2.42144646      -0.68295456
H       -0.62264859      -2.45592969       0.64226336
C        1.78714474       0.01002794       0.00389507
H        2.44202412       0.67113390       0.66197326
H        2.45385902      -0.65136977      -0.64189061
C        0.91606151      -0.90478549       0.90901405
