162
Properties=species:S:1:pos:R:3 pbc="F F F"
C        1.79173151       1.79173151      -1.79173151
C        1.49554491       3.14690482      -1.93179315
C        2.30463279       3.95217666      -2.73741226
C        3.40206539       3.39935938      -3.41010319
C        3.70294074       2.03900922      -3.24950938
C        2.89297192       1.23497249      -2.44242270
C        4.24451698       4.29310684      -4.25584227
O        4.39839605       5.45389720      -3.89882509
N        4.74920526       3.69854565      -5.39428775
C        5.59155269       4.26575419      -6.38208737
C        6.10409734       5.56358015      -6.28881153
C        6.93352860       6.06557066      -7.29449693
Br       7.61138382       7.82702618      -7.15969793
C        7.27182921       5.28621215      -8.39722430
C        6.77377361       3.98867202      -8.50033220
C        5.92944171       3.47381129      -7.50525451
S        5.33508879       1.78716614      -7.69720915
C        3.87012200       2.11309292      -8.56293437
N        3.37085669       3.28626582      -8.87298306
N        2.19213286       3.07741463      -9.55350553
C        2.00667250       1.78075124      -9.63362149
N        3.03600628       1.13223872      -9.01911553
C        3.17564791      -0.29377016      -8.89428794
H        0.64490743       3.58722233      -1.41765740
H        2.07835423       5.01214164      -2.84177191
H        4.58004549       1.59925134      -3.71675742
H        3.13503853       0.18245416      -2.31634394
H        4.42073318       2.76777275      -5.61919146
H        5.86752389       6.20349975      -5.44530785
H        7.91443748       5.68007508      -9.18035784
H        7.03795755       3.38962370      -9.36832372
H        1.17059341       1.28646484     -10.10911843
H        2.29649876      -0.78482002      -9.31872536
H        3.25585197      -0.54920316      -7.83518215
H        4.06921675      -0.60716513      -9.43880513
C       -1.79173151      -1.79173151      -1.79173151
C       -2.91442110      -1.24660513      -2.41321665
C       -3.71864642      -2.05457242      -3.22100288
C       -3.40537380      -3.40850553      -3.39764864
C       -2.26434083      -3.94422216      -2.78289635
C       -1.46031536      -3.13426539      -1.97578637
C       -4.28529373      -4.23615082      -4.27202155
O       -4.80429517      -3.70281277      -5.24401040
N       -4.44029815      -5.54346176      -3.85827875
C       -5.18664072      -6.57762299      -4.47513054
C       -5.85046751      -6.41129164      -5.69472987
C       -6.56767317      -7.47117179      -6.25475122
Br      -7.46928393      -7.22831924      -7.90050476
C       -6.62770484      -8.70827773      -5.61928310
C       -5.96558107      -8.89061562      -4.40658114
C       -5.25129199      -7.83273909      -3.82447644
S       -4.41023573      -8.14382898      -2.26539937
C       -5.67962675      -7.68910832      -1.17741422
N       -6.85388005      -7.19099989      -1.48522564
N       -7.54024201      -6.97085572      -0.31195528
C       -6.75988808      -7.33825111       0.67709396
N       -5.57485199      -7.79308420       0.18057566
C       -4.46524895      -8.27152804       0.96061131
H       -3.17007404      -0.19823183      -2.28148129
H       -4.59163728      -1.62808501      -3.71254549
H       -1.97008666      -4.97712991      -2.94883767
H       -0.57322311      -3.55346755      -1.50714597
H       -4.05289672      -5.79682299      -2.95797770
H       -5.82732382      -5.46472082      -6.22428685
H       -7.18932722      -9.53052008      -6.05502310
H       -6.02346458      -9.85823146      -3.91420893
H       -7.00353480      -7.29233879       1.72969692
H       -4.69259725      -8.16162795       2.02382109
H       -3.58084490      -7.67824015       0.71725409
H       -4.30233547      -9.32623001       0.72770873
C       -1.79173151       1.79173151       1.79173151
C       -2.92322024       1.25049412       2.40052851
C       -3.72744440       2.05843425       3.20834307
C       -3.40529120       3.40856381       3.39767296
C       -2.25558268       3.94020117       2.79567548
C       -1.45157858       3.13026808       1.98852046
C       -4.28556440       4.23625409       4.27164760
O       -4.81598320       3.69954889       5.23558625
N       -4.42751233       5.54780240       3.86672393
C       -5.17068953       6.58292692       4.48577780
C       -5.84503610       6.41243779       5.69901512
C       -6.55845013       7.47348763       6.26165843
Br      -7.47439542       7.22506998       7.89864253
C       -6.60427139       8.71578867       5.63520561
C       -5.93155920       8.90224421       4.42897442
C       -5.22087804       7.84338723       3.84424224
S       -4.36562829       8.15984409       2.29399169
C       -5.63009119       7.72306183       1.19299626
N       -6.81039312       7.23160650       1.48810596
N       -7.48943521       7.02558698       0.30803083
C       -6.69880464       7.39449540      -0.67225482
N       -5.51418103       7.83650908      -0.16332958
C       -4.39507375       8.31236736      -0.93127543
H       -3.18578727       0.20512754       2.25887234
H       -4.60736023       1.63490835       3.68999920
H       -1.95479450       4.96954992       2.97170982
H       -0.55779193       3.54622833       1.52981637
H       -4.03135122       5.80500791       2.97133827
H       -5.83309456       5.46173782       6.22149910
H       -7.16296174       9.53896857       6.07294009
H       -5.97836284       9.87397149       3.94357064
H       -6.93475867       7.35840886      -1.72699085
H       -4.61513363       8.21225273      -1.99698225
H       -3.51706589       7.71052860      -0.68576354
H       -4.22596433       9.36400382      -0.68911141
C        1.79173151      -1.79173151       1.79173151
C        1.30239752      -3.00946870       2.26237665
C        2.11141467      -3.81548254       3.06732451
C        3.40422116      -3.39807497       3.40923183
C        3.89464560      -2.17988248       2.91693126
C        3.08425928      -1.37512525       2.11098259
C        4.23851627      -4.28932350       4.26562632
O        4.11136870      -5.50030865       4.13944099
N        5.06597508      -3.62685462       5.14920896
C        5.98634237      -4.17933850       6.07371339
C        6.23613899      -5.55207847       6.16827156
C        7.15908359      -6.03600152       7.09851108
Br       7.47927432      -7.89680953       7.22202408
C        7.85078859      -5.16689133       7.93758575
C        7.61695211      -3.79577533       7.85005039
C        6.68411695      -3.29450601       6.92988455
S        6.44339123      -1.51337989       6.86269296
C        5.15930560      -1.36986957       8.01697412
N        4.54165273      -2.34046765       8.64798520
N        3.58634766      -1.77441381       9.46229154
C        3.64835071      -0.47379525       9.29889927
N        4.62163921      -0.17199678       8.39372454
C        4.97574272       1.14943172       7.94985468
H        0.29981328      -3.34312759       2.00684629
H        1.73276980      -4.76997767       3.42952032
H        4.91275088      -1.86041092       3.12289244
H        3.47224920      -0.43486000       1.72672742
H        4.95767067      -2.62332172       5.22670501
H        5.72085250      -6.26366825       5.53181074
H        8.56582913      -5.54588533       8.66315594
H        8.15690573      -3.12509598       8.51390325
H        3.02893267       0.25957904       9.79682305
H        4.30358897       1.87993548       8.40675062
H        4.87442372       1.19572044       6.86312767
H        6.00413466       1.35716681       8.25388890
C       -0.00445707       0.01189536      -1.78238275
H       -0.66409135       0.67374010      -2.43557963
H        0.65740317      -0.63156657      -2.45157240
C       -0.90989263      -0.90692880      -0.91072765
C        0.90977584       0.90977584      -0.90977584
C       -0.00465871       1.77757030       0.00794375
H       -0.66225468       2.44313916      -0.64384735
H        0.64322798       2.43503045       0.67728295
C       -1.78241447       0.00034974      -0.00472694
H       -2.45427497      -0.65498947       0.64260836
H       -2.43311707       0.67328779      -0.65473579
C       -0.91132561       0.90220522       0.91563759
C       -0.01476271      -0.02253852       1.78660255
H       -0.67934791      -0.69751639       2.42135241
H        0.63392994       0.61504881       2.47327442
C        0.01484550      -1.77751727      -0.01636693
H        0.67870853      -2.42144646      -0.68295456
H       -0.62264859      -2.45592969       0.64226336
C        1.78714474       0.01002794       0.00389507
H        2.44202412       0.67113390       0.66197326
H        2.45385902      -0.65136977      -0.64189061
C        0.91606151      -0.90478549       0.90901405
