165
Properties=species:S:1:pos:R:3 pbc="F F F"
C        0.00000000       0.00000000       0.00000000
C        0.88194373       0.88194373      -0.88194373
C        2.12805241       1.28813067      -0.42259423
C        2.91180515       2.11304869      -1.22284417
C        2.45511057       2.51958768      -2.48248761
C        1.21470511       2.09023535      -2.98730663
C        0.42480713       1.27957489      -2.14103561
C        0.66320085       2.51550984      -4.37861570
C        1.70508276       3.24537560      -5.27360666
C        2.78423947       2.31128810      -5.81085065
O        2.21493092       1.19846647      -6.49079309
C        1.36396115       0.42520675      -5.64904130
C        0.18462436       1.26175978      -5.16590285
N       -0.44581864       3.45490551      -4.08108256
C       -1.27172185       4.02864471      -5.01794856
O       -1.28177981       3.70331791      -6.19466118
N       -2.01387574       5.05300958      -4.47147743
C       -2.92987979       5.85860321      -5.19273851
C       -3.62461739       5.37495298      -6.30747662
C       -4.49997262       6.20195653      -7.01717148
C       -4.69238515       7.52244305      -6.61958681
C       -4.02591705       8.01319667      -5.49764176
C       -3.16057220       7.18129182      -4.77980826
Br      -2.26678030       7.91714662      -3.27072853
H        2.49170066       0.97909399       0.55358859
H        3.88399636       2.44677706      -0.86657548
H        3.10576465       3.17998031      -3.04903633
H       -0.56596365       0.95978660      -2.45786895
H        2.15264601       4.10505268      -4.76157518
H        1.19480250       3.66669065      -6.14904202
H        3.40577499       2.85400221      -6.53117665
H        3.45433065       1.94576583      -5.02709916
H        0.99563948      -0.41647120      -6.24467226
H        1.94564428       0.00726018      -4.82011802
H       -0.36968971       1.56767074      -6.05915851
H       -0.50655885       0.63785864      -4.59117988
H       -0.71170447       3.57404352      -3.11489271
H       -1.60749700       5.48885275      -3.65527783
H       -3.50545950       4.34712638      -6.64174091
H       -5.02430133       5.81060197      -7.88605145
H       -5.36053096       8.16785288      -7.18434415
H       -4.17951788       9.04638463      -5.19750753
C       -0.88194373      -0.88194373      -0.88194373
C       -2.25683829      -0.68635364      -0.89558537
C       -3.05325049      -1.51253075      -1.68191677
C       -2.47450428      -2.52220684      -2.46047473
C       -1.08191838      -2.71535329      -2.49497542
C       -0.29922362      -1.88383479      -1.66235922
C       -0.39210563      -3.82340022      -3.34182054
C       -1.34421237      -4.53452749      -4.34532516
C       -1.72933082      -3.65034919      -5.52669820
O       -0.57801965      -3.13832348      -6.18784735
C        0.24285225      -2.35821352      -5.32284795
C        0.77066628      -3.20942366      -4.17352961
N        0.08430386      -4.82148147      -2.35299182
C        0.81963910      -5.94383484      -2.65067567
O        1.29797412      -6.16149448      -3.75267892
N        0.87368299      -6.80664466      -1.57764960
C        1.52813308      -8.06358028      -1.58601472
C        2.64571765      -8.31230833      -2.39122153
C        3.25285030      -9.57133538      -2.40067031
C        2.75053571     -10.59658382      -1.60359661
C        1.65228992     -10.35893936      -0.77827193
C        1.05354676      -9.09509331      -0.75898133
Br      -0.45326116      -8.84149860       0.37366490
H       -2.71626250       0.09367560      -0.29461916
H       -4.13240460      -1.37532699      -1.68961731
H       -3.15304020      -3.14585882      -3.03588228
H        0.77892646      -2.02171132      -1.60890704
H       -2.23656940      -4.93345414      -3.84925033
H       -0.83414419      -5.41039721      -4.76599377
H       -2.28975810      -4.24552271      -6.25567302
H       -2.37469853      -2.81596288      -5.23653424
H        1.08297411      -1.98757596      -5.91923870
H       -0.31702492      -1.48463063      -4.97136694
H        1.37229580      -4.00577511      -4.62366022
H        1.46646625      -2.62524535      -3.56370058
H       -0.00988092      -4.59273280      -1.37461805
H        0.10918318      -6.72389349      -0.92192327
H        3.07009975      -7.53337771      -3.02012984
H        4.11518814      -9.74795709      -3.03958314
H        3.21450786     -11.57949823      -1.62667570
H        1.26499007     -11.16659461      -0.16276973
C       -0.88194373       0.88194373       0.88194373
C       -0.61992530       0.97631383       2.24253818
C       -1.44550483       1.76120676       3.04098641
C       -2.52135917       2.45816396       2.47766272
C       -2.78430152       2.41101814       1.09692743
C       -1.95032450       1.58093105       0.31416207
C       -3.96727263       3.16550225       0.42455151
C       -4.68167435       4.18072989       1.36166078
C       -3.84193612       5.42250980       1.64193229
O       -3.42206210       6.04758629       0.43454209
C       -2.63956480       5.18069435      -0.38204994
C       -3.45509705       3.96512554      -0.80793561
N       -4.93507681       2.10544852       0.04964409
C       -6.10614166       2.30911350      -0.64038374
O       -6.40379745       3.37284683      -1.16044500
N       -6.91388608       1.19358618      -0.59686099
C       -8.20024049       1.10623569      -1.18501426
C       -8.54497387       1.83932463      -2.32648630
C       -9.83114283       1.75540052      -2.86738796
C      -10.78782191       0.93591869      -2.27409589
C      -10.45405418       0.18121734      -1.15035014
C       -9.16298196       0.25512770      -0.61758178
Br      -8.77730494      -0.78418591       0.92797582
H        0.21180935       0.43902434       2.68999107
H       -1.25596428       1.83147615       4.10990846
H       -3.13981499       3.03653451       3.15843180
H       -2.13811936       1.46504564      -0.75147311
H       -5.01001784       3.71247079       2.29678524
H       -5.60216693       4.53084682       0.87752142
H       -4.44574222       6.14934528       2.19586634
H       -2.96291824       5.20752472       2.25675268
H       -2.34205939       5.75032462      -1.26854346
H       -1.72248303       4.90205326       0.14848619
H       -4.30230281       4.34380322      -1.38896650
H       -2.87508234       3.34958627      -1.50218893
H       -4.65165428       1.14569740       0.17988008
H       -6.75980949       0.58316174       0.19366234
H       -7.82144895       2.48298592      -2.82102707
H      -10.08279323       2.33937424      -3.74981538
H      -11.79224580       0.88658017      -2.68715990
H      -11.20874824      -0.45240382      -0.69197015
C        0.88194373      -0.88194373       0.88194373
C        0.40372243      -1.32786043       2.10719445
C        1.22506338      -2.10837671       2.91425792
C        2.51506026      -2.45101426       2.49111133
C        3.00852940      -2.04555620       1.23816148
C        2.16606471      -1.22688249       0.45247043
C        4.43396885      -2.39897791       0.72437963
C        5.17566603      -3.45156462       1.59683437
C        4.60179823      -4.85663972       1.44794026
O        4.56228930      -5.25843953       0.08346165
C        3.76694252      -4.38748590      -0.71621922
C        4.35021361      -2.97898551      -0.71691214
N        5.18877346      -1.12294473       0.77845124
C        6.48148198      -0.94754822       0.34584122
O        7.10195970      -1.79323218      -0.27899261
N        6.99406452       0.25765441       0.77420116
C        8.31263018       0.70953330       0.51836504
C        9.01703997       0.32934185      -0.62988590
C       10.32756003       0.76722259      -0.84118205
C       10.94902775       1.59209106       0.09270803
C       10.25346425       1.99897509       1.23043222
C        8.93747600       1.57161763       1.43466951
Br       8.05072646       2.14592037       3.01628876
H       -0.59540594      -1.06712976       2.44548224
H        0.86408723      -2.45201544       3.88124623
H        3.11305272      -3.04521013       3.17651845
H        2.51445333      -0.84066262      -0.50342405
H        5.21286773      -3.15497128       2.65143486
H        6.22409610      -3.50868342       1.27775565
H        5.24254988      -5.56687733       1.98152663
H        3.59970633      -4.95077752       1.87671179
H        3.77327544      -4.78642473      -1.73585962
H        2.72945346      -4.40862141      -0.36505238
H        5.35270743      -3.05492338      -1.15049127
H        3.78306096      -2.33914701      -1.39972829
H        4.67673422      -0.28598441       1.01451313
H        6.56400285       0.63472621       1.60735694
H        8.56082073      -0.30699308      -1.38440602
H       10.86180564       0.45408981      -1.73536374
H       11.97442233       1.91643552      -0.06632075
H       10.74838994       2.63958309       1.95556744
