109
Properties=species:S:1:pos:R:3 pbc="F F F"
C        0.00000000       0.00000000       0.00000000
C        0.88189427       0.88189427      -0.88189427
C        1.93189912       1.60167732      -0.30911885
C        2.73634873       2.41243013      -1.11212463
C        2.48918428       2.48164472      -2.48700545
C        1.42853450       1.77089214      -3.05947497
C        0.62482577       0.96467773      -2.25126273
S        3.48243429       3.54018205      -3.51040015
O        2.65213603       3.97907339      -4.61220615
O        4.16911902       4.49491330      -2.66758494
N        4.60067837       2.46052845      -4.18034198
C        5.79356361       2.20119263      -3.45140324
C        6.90978911       3.01761618      -3.64192612
C        8.07477454       2.79144618      -2.90568036
C        8.11304862       1.75222780      -1.97638769
O        9.25358492       1.52741095      -1.25806240
C        6.98899334       0.94434886      -1.77815571
Br       6.99683521      -0.47246916      -0.51762243
C        5.82390964       1.17103563      -2.51409850
H        2.12638761       1.54265210       0.75915614
H        3.54738599       2.98169930      -0.66209239
H        1.22004314       1.84412206      -4.12480350
H       -0.20014156       0.41242807      -2.69481960
H        4.69370282       2.63040870      -5.18198730
H        6.87693513       3.84274466      -4.34895634
H        8.93313210       3.43767137      -3.06445001
H        9.92761961       2.18139688      -1.50489716
H        4.95324814       0.53856468      -2.36784622
C       -0.88189427      -0.88189427      -0.88189427
C       -1.71825069      -0.29276110      -1.83168350
C       -2.52907149      -1.09625469      -2.63557731
C       -2.48183967      -2.48644312      -2.48955166
C       -1.65367585      -3.07671265      -1.52851311
C       -0.84779357      -2.26833399      -0.72463867
S       -3.53789118      -3.51464614      -3.48047916
O       -3.83324448      -4.70263633      -2.70753477
O       -4.59935775      -2.70052566      -4.03173384
N       -2.50185060      -4.01964771      -4.72005050
C       -2.38631690      -3.19053142      -5.86931117
C       -3.26984230      -3.36323788      -6.93625123
C       -3.18568710      -2.53135315      -8.05486082
C       -2.22074345      -1.52525030      -8.09567036
O       -2.13480473      -0.71302140      -9.19123214
C       -1.34566545      -1.34608097      -7.01975148
Br      -0.02627954       0.01606994      -7.03177888
C       -1.43034857      -2.17771068      -5.90098453
H       -1.74991814       0.78798008      -1.94794551
H       -3.18884990      -0.63464150      -3.36768627
H       -1.63527827      -4.15659549      -1.39709494
H       -0.20433974      -2.72578823       0.02302187
H       -2.60704464      -5.02222478      -4.87682940
H       -4.03798962      -4.13159583      -6.89905068
H       -3.88254546      -2.67775781      -8.87495022
H       -2.81911661      -0.96064302      -9.83415403
H       -0.74534762      -2.04567329      -5.06863813
C       -0.88189427       0.88189427       0.88189427
C       -0.29355914       1.84089397       1.70824219
C       -1.09700796       2.64483543       2.51906009
C       -2.48649310       2.48952158       2.48181977
C       -3.07583840       1.51931899       1.66374422
C       -2.26747291       0.71546060       0.85783271
S       -3.51427355       3.48063184       3.53811108
O       -4.69527512       2.70196185       3.84617861
O       -2.69691219       4.04403294       4.59067213
N       -4.03401698       4.71014522       2.49738661
C       -3.21316031       5.86396572       2.36903345
C       -3.38709010       6.93549324       3.24674807
C       -2.56306282       8.05888601       3.14995224
C       -1.56350582       8.09991932       2.17823897
O       -0.75899511       9.20012659       2.07993657
C       -1.38300041       7.01951012       1.30898738
Br      -0.02951437       7.03175797      -0.01928386
C       -2.20676824       5.89596506       1.40631048
H        0.78658482       1.96434371       1.73212468
H       -0.63591258       3.38419072       3.17107438
H       -4.15493965       1.38080561       1.65322343
H       -2.72420280      -0.03931249       0.22221580
H       -5.03689195       4.86112072       2.60808616
H       -4.15020790       6.89832520       4.02010303
H       -2.71029246       8.88252870       3.84243232
H       -1.00636579       9.84587326       2.76167461
H       -2.07374885       5.06005017       0.72586002
C        0.88189427      -0.88189427       0.88189427
C        0.82936203      -0.74337479       2.26995848
C        1.63808333      -1.54469807       3.07812208
C        2.48205386      -2.48981390       2.48596669
C        2.54495634      -2.61975025       1.09419502
C        1.73692248      -1.81324154       0.29060220
S        3.54288322      -3.48659114       3.50354212
O        4.72278419      -3.79664061       2.72399078
O        3.65164394      -2.87140269       4.80857064
N        2.67917914      -4.93716228       3.62520738
C        1.72145148      -5.05528477       4.66942323
C        2.12002120      -5.52847051       5.92083970
C        1.19366965      -5.61593899       6.96229244
C       -0.12658175      -5.22172833       6.74651753
O       -1.03491666      -5.31039130       7.76358363
C       -0.51988126      -4.73567380       5.49570537
Br      -2.30262020      -4.18039602       5.16421266
C        0.40675582      -4.64775118       4.45453677
H        0.16865849      -0.01193402       2.72929106
H        1.60415706      -1.42747136       4.15954926
H        3.21983680      -3.33714540       0.63198650
H        1.78541821      -1.91276780      -0.79107990
H        3.30350815      -5.72954284       3.47304783
H        3.15311480      -5.81565629       6.09986504
H        1.52116469      -5.98379930       7.93028949
H       -0.59787380      -5.65056996       8.56121750
H        0.10054705      -4.27917808       3.47993390
