162
Properties=species:S:1:pos:R:3 pbc="F F F"
C        1.79128492       1.79128492      -1.79128492
C        1.79766149       3.16967946      -1.60181203
C        2.60463117       3.97514645      -2.40853852
C        3.40839002       3.40820052      -3.40769692
C        3.39639281       2.02036101      -3.59037031
C        2.58257552       1.21121206      -2.77954058
S        4.36787896       1.21809062      -4.84406310
O        4.17439176      -0.20883078      -4.69148638
O        4.10098102       1.88427314      -6.09978647
N        5.95139541       1.62469946      -4.35507951
C        6.95033667       0.64063649      -4.69038680
C        7.20477374      -0.33290943      -3.71901789
C        8.12882130      -1.34143679      -3.96228903
C        8.79194944      -1.37799778      -5.18601219
O        9.70419410      -2.37602526      -5.41995481
C        8.54674541      -0.42000807      -6.19279733
C        9.21467905      -0.46736448      -7.43456130
C        8.96391035       0.47049868      -8.43425721
C        8.03606312       1.47674246      -8.21302449
C        7.36366244       1.54685552      -6.99097145
C        7.60048472       0.61011399      -5.95386077
H        1.18036282       3.62765307      -0.83240291
H        2.59780485       5.05176559      -2.24669709
H        2.56196561       0.13167246      -2.91881439
H        6.17692107       2.52773312      -4.77768603
H        6.67753194      -0.30617365      -2.76895201
H        8.31417153      -2.08584481      -3.19461269
H        9.70699695      -2.98549746      -4.66418790
H        9.94102565      -1.25490633      -7.62947512
H        9.48832421       0.40622663      -9.38371402
H        7.82575178       2.20571375      -8.99150855
H        6.63548755       2.34495316      -6.87337152
C        4.21286295       4.32841014      -4.16903625
C        4.88660903       5.09908569      -4.80665793
Br       5.97599946       6.34520288      -5.83763827
C       -1.79128492      -1.79128492      -1.79128492
C       -2.19370934      -1.33342612      -3.04201753
C       -2.99984840      -2.14071548      -3.84775225
C       -3.40771091      -3.40815713      -3.40841943
C       -2.99706644      -3.86097795      -2.14907974
C       -2.18776490      -3.04708807      -1.33847519
S       -3.48169258      -5.44459645      -1.50374365
O       -2.81497253      -5.61271085      -0.22936397
O       -4.91982491      -5.54488845      -1.62032727
N       -2.78284071      -6.50228332      -2.64605036
C       -2.38852374      -7.78174643      -2.11108979
C       -1.07366004      -7.87383039      -1.64339178
C       -0.61038440      -9.05723541      -1.08205373
C       -1.47100832     -10.14712351      -0.98183201
O       -1.00727354     -11.31351282      -0.42733730
C       -2.80758358     -10.08199960      -1.42995150
C       -3.67805450     -11.18651208      -1.31730928
C       -5.00173745     -11.11926457      -1.74766420
C       -5.48424182      -9.94229254      -2.29929572
C       -4.64149540      -8.83567605      -2.42431796
C       -3.28973212      -8.87508677      -1.99964059
H       -1.88799610      -0.35286792      -3.39955479
H       -3.30545987      -1.76714737      -4.82366030
H       -1.86904960      -3.38837608      -0.35502679
H       -3.45867108      -6.61973620      -3.40393294
H       -0.40828206      -7.01737392      -1.71465433
H        0.41405402      -9.10938484      -0.72760859
H       -0.09983243     -11.17458212      -0.11127284
H       -3.31924608     -12.11679241      -0.87955596
H       -5.65189664     -11.98350877      -1.64285945
H       -6.51866089      -9.87727219      -2.62704101
H       -5.07220392      -7.93274681      -2.84886150
C       -4.22251774      -4.16249358      -4.32529802
C       -4.90491845      -4.79425036      -5.09318384
Br      -6.00830270      -5.81574764      -6.33479027
C       -1.79128492       1.79128492       1.79128492
C       -2.17707504       1.34180643       3.05027151
C       -2.98322928       2.14909174       3.85599513
C       -3.40770841       3.40816402       3.40841504
C       -3.01373312       3.85260043       2.14079058
C       -2.20439931       3.03869824       1.33023060
S       -3.52005744       5.42506064       1.48491460
O       -2.86739134       5.58715134       0.20250468
O       -4.95790514       5.51255108       1.61458442
N       -2.82055227       6.50059259       2.61002953
C       -2.44397200       7.77852118       2.05886678
C       -1.13466480       7.87875938       1.57745803
C       -0.68844823       9.06104901       1.00017630
C       -1.56062362      10.14151567       0.89782456
O       -1.11371520      11.30686259       0.32754588
C       -2.89209374      10.06783309       1.35960785
C       -3.77437858      11.16270584       1.24479144
C       -5.09310895      11.08685098       1.68870630
C       -5.55870939       9.91071249       2.25640820
C       -4.70400590       8.81358844       2.38389507
C       -3.35687054       8.86193674       1.94565220
H       -1.85833442       0.36780061       3.41428377
H       -3.27570270       1.78214533       4.83841950
H       -1.89858056       3.37342078       0.34045112
H       -3.49012526       6.61890110       3.37331387
H       -0.46028101       7.02952738       1.65050192
H        0.33194907       9.11965076       0.63523772
H       -0.20806299      11.17364433       0.00398007
H       -3.42894580      12.09209170       0.79455696
H       -5.75267653      11.94368926       1.58189906
H       -6.58921915       9.83888314       2.59487179
H       -5.12172752       7.91072530       2.82135942
C       -4.22093481       4.16350475       4.32586979
C       -4.90201191       4.79610260       5.09423814
Br      -6.00325599       5.81895984       6.33662479
C        1.79128492      -1.79128492       1.79128492
C        1.90757927      -3.14940249       1.51217123
C        2.71445877      -3.95485932       2.31899805
C        3.40842238      -3.40815242       3.40771268
C        3.28631485      -2.04052447       3.68028482
C        2.47263038      -1.23156483       2.86913294
S        4.11378353      -1.26651916       5.04972999
O        3.83040196       0.15172791       4.97837330
O        3.81234766      -2.03596481       6.23672816
N        5.75089554      -1.53213583       4.64814302
C        6.65345660      -0.51045538       5.11744798
C        6.90199325       0.54398866       4.23287761
C        7.73435704       1.59158174       4.60689824
C        8.31102104       1.58523296       5.87417576
O        9.13299525       2.62225579       6.23738420
C        8.06823683       0.54437797       6.79567582
C        8.64772987       0.54781584       8.08196183
C        8.39845220      -0.47287309       8.99734094
C        7.56069050      -1.52000204       8.64513754
C        6.97705906      -1.54777812       7.37665223
C        7.21500451      -0.52648116       6.42297381
H        1.37633382      -3.59158225       0.67250272
H        2.79445518      -5.01544097       2.08637139
H        2.36660947      -0.16829197       3.07755102
H        6.01130753      -2.44592542       5.02510727
H        6.44182148       0.54974024       3.24822907
H        7.91688442       2.39900259       3.90505758
H        9.14258385       3.28248260       5.52558614
H        9.30213325       1.36582877       8.37928997
H        8.85319598      -0.44140797       9.98366090
H        7.35151442      -2.31447008       9.35698958
H        6.31647915      -2.38188351       7.15544957
C        4.22392398      -4.32477026       4.16161511
C        4.90690657      -5.09243770       4.79300839
Br       6.01123166      -6.33369103       5.81391793
C       -0.00445707       0.01189536      -1.78238275
H       -0.66409135       0.67374010      -2.43557963
H        0.65740317      -0.63156657      -2.45157240
C       -0.90989263      -0.90692880      -0.91072765
C        0.90977584       0.90977584      -0.90977584
C       -0.00465871       1.77757030       0.00794375
H       -0.66225468       2.44313916      -0.64384735
H        0.64322798       2.43503045       0.67728295
C       -1.78241447       0.00034974      -0.00472694
H       -2.45427497      -0.65498947       0.64260836
H       -2.43311707       0.67328779      -0.65473579
C       -0.91132561       0.90220522       0.91563759
C       -0.01476271      -0.02253852       1.78660255
H       -0.67934791      -0.69751639       2.42135241
H        0.63392994       0.61504881       2.47327442
C        0.01484550      -1.77751727      -0.01636693
H        0.67870853      -2.42144646      -0.68295456
H       -0.62264859      -2.45592969       0.64226336
C        1.78714474       0.01002794       0.00389507
H        2.44202412       0.67113390       0.66197326
H        2.45385902      -0.65136977      -0.64189061
C        0.91606151      -0.90478549       0.90901405
