197
Properties=species:S:1:pos:R:3 pbc="F F F"
C        0.00000000       0.00000000       0.00000000
C        0.88124882       0.88124882      -0.88124882
C        1.06112847       2.22650286      -0.56087974
C        1.84369810       3.03855637      -1.38692591
C        2.45217960       2.49595288      -2.51870858
C        2.28220170       1.14299002      -2.82597961
C        1.48929925       0.33519108      -2.01014745
N        3.11864665       3.33125864      -3.46172875
S        2.16746346       4.35701421      -4.42431625
O        1.64255762       5.41595197      -3.58920460
O        2.94377749       4.66214954      -5.60547891
C        0.79909198       3.30918674      -4.89563272
C       -0.39716228       3.43993320      -4.13837025
C       -1.47388246       2.55121966      -4.30862946
C       -1.29419457       1.55567360      -5.25493059
N       -2.10931867       0.50269183      -5.64216330
H       -2.98400433       0.24624410      -5.19535069
C       -1.52590250      -0.28310214      -6.64210917
O       -2.03389085      -1.27773699      -7.13677692
C       -0.25840352       0.38536401      -6.86102715
C        0.77778926       0.07673650      -7.73527341
C        1.90880927       0.90546324      -7.68695098
C        2.00038384       1.99201842      -6.78982620
C        0.93606298       2.30759916      -5.90252586
C       -0.14430597       1.47667215      -6.01059458
S       -2.93172466       2.73517495      -3.32389835
O       -3.60420889       1.45269287      -3.32837551
O       -2.56519540       3.41131454      -2.10023330
N       -3.82683819       3.78665229      -4.32125236
C       -5.09872743       4.15722717      -3.78629170
C       -6.22574862       3.38778380      -4.08158019
C       -7.46425398       3.73600874      -3.54069231
C       -7.56318901       4.84420017      -2.69995487
Br      -9.24407711       5.32496911      -1.98190329
C       -6.43253762       5.59696614      -2.38216218
C       -5.19234722       5.24465884      -2.91921250
H        0.58264776       2.65579438       0.31660335
H        1.95824595       4.09402011      -1.14781220
H        2.72978852       0.71350959      -3.71857668
H        1.34012294      -0.71009005      -2.27036903
H        3.88034790       2.91746233      -3.99724869
H       -0.47320485       4.21785092      -3.37715135
H        0.70282028      -0.76643216      -8.41457422
H        2.74011718       0.70277138      -8.36205150
H        2.90944594       2.58857479      -6.81457083
H       -3.91379514       3.37636550      -5.25167336
H       -6.15284921       2.51155104      -4.71990364
H       -8.33989095       3.13607603      -3.77498213
H       -6.50440400       6.45404924      -1.71768877
H       -4.30850035       5.82361409      -2.66383394
C       -0.88124882      -0.88124882      -0.88124882
C       -2.09646832      -0.39234361      -1.35969914
C       -2.91581125      -1.21240369      -2.14096544
C       -2.50714857      -2.50976055      -2.44993194
C       -1.28042579      -2.98905210      -1.98169344
C       -0.46876233      -2.17627392      -1.18960153
N       -3.38939609      -3.41765524      -3.10458271
S       -4.71518616      -4.00958929      -2.22401847
O       -5.66706809      -2.93408110      -2.04656500
O       -5.11107843      -5.25267830      -2.84764921
C       -4.00424844      -4.37388646      -0.62577654
C       -4.17701933      -3.39376942       0.38964759
C       -3.51755462      -3.49610636       1.62769433
C       -2.70254701      -4.60432742       1.79046479
N       -1.88346945      -4.99220368       2.84013667
H       -1.68869517      -4.43471278       3.66581750
C       -1.21818519      -6.19541725       2.58049790
O       -0.42744992      -6.73611150       3.33841234
C       -1.70740454      -6.54102623       1.26044313
C       -1.40951371      -7.63243916       0.45215369
C       -2.02524535      -7.66799712      -0.80798102
C       -2.89493586      -6.64420798      -1.24308462
C       -3.20154463      -5.53374305      -0.41090031
C       -2.58694834      -5.56599172       0.80997930
S       -3.74030693      -2.23780238       2.85076066
O       -2.60412549      -2.31776174       3.74502774
O       -4.10724567      -1.01407067       2.17496390
N       -5.08873485      -2.86994508       3.67761347
C       -5.54780769      -2.05321253       4.75622877
C       -5.03545507      -2.24844318       6.04028288
C       -5.46647894      -1.43578366       7.08981553
C       -6.39782954      -0.42733282       6.84419633
Br      -6.99374441       0.66134448       8.26960464
C       -6.88920226      -0.21360409       5.55621565
C       -6.45323215      -1.02350552       4.50521354
H       -2.42271023       0.61613497      -1.11526354
H       -3.87575388      -0.83567374      -2.48865064
H       -0.96172401      -4.00638823      -2.19376254
H        0.47186789      -2.56533106      -0.80693876
H       -2.96903544      -4.14559523      -3.68042825
H       -4.79960348      -2.51882569       0.19663175
H       -0.73206948      -8.40981293       0.79092008
H       -1.82483596      -8.51104409      -1.46906001
H       -3.33441347      -6.74539317      -2.23278492
H       -4.88011177      -3.82017131       3.98603935
H       -4.29490614      -3.01918252       6.23548319
H       -5.06727437      -1.59251819       8.08862536
H       -7.60609758       0.57926663       5.35949694
H       -6.82683282      -0.85118656       3.49907170
C       -0.88124882       0.88124882       0.88124882
C       -1.52962931       1.98694392       0.33193784
C       -2.31121404       2.80999215       1.14797419
C       -2.45026419       2.51287827       2.50369861
C       -1.81169480       1.39380922       3.04566731
C       -1.01951034       0.58016252       2.23496493
N       -3.10478216       3.41952681       3.38732507
S       -2.31658582       4.87822804       3.75398006
O       -2.34386565       5.72390781       2.57994074
O       -2.85714403       5.34177636       5.01248554
C       -0.62486068       4.36529211       4.01375865
C        0.26859419       4.52971715       2.92001820
C        1.57338224       4.00576327       2.95358562
C        1.92611025       3.33144992       4.11106996
N        3.08849257       2.66166743       4.46236161
H        3.87318843       2.48877374       3.84200513
C        3.01636420       2.10531044       5.74415829
O        3.90153062       1.45189030       6.27478939
C        1.69105973       2.50018185       6.17886551
C        1.02644276       2.24339289       7.37284904
C       -0.28245093       2.73649806       7.48227450
C       -0.90246526       3.44788482       6.43187837
C       -0.21693190       3.71357126       5.21568483
C        1.05944937       3.22500040       5.17740973
S        2.64057960       4.21011137       1.55781687
O        3.65323281       3.17915216       1.65094015
O        1.81628960       4.37981880       0.38282325
N        3.37705510       5.69034179       1.96777977
C        4.31843373       6.16141846       1.00180672
C        5.66209899       5.79726665       1.10844771
C        6.57803736       6.23823661       0.15224783
C        6.14054057       7.03033764      -0.90883103
Br       7.38483163       7.64123862      -2.19361171
C        4.79343833       7.37139713      -1.03136811
C        3.87630425       6.92510016      -0.07727178
H       -1.41822317       2.22679476      -0.72317913
H       -2.79253718       3.68730141       0.72023968
H       -1.89101424       1.16544158       4.10541896
H       -0.50442700      -0.27339596       2.66937089
H       -3.56104602       3.02532948       4.20868343
H       -0.07153729       5.03528551       2.01497462
H        1.50733016       1.68712341       8.17116909
H       -0.83531104       2.56403463       8.40559439
H       -1.91882392       3.79922817       6.59453947
H        3.79493450       5.61347184       2.89570639
H        6.00690279       5.16414823       1.92136003
H        7.62375107       5.95483181       0.24008647
H        4.44751694       7.97862298      -1.86377203
H        2.82454821       7.18081832      -0.17732244
C        0.88124882      -0.88124882       0.88124882
C        2.07111902      -0.37449789       1.40289415
C        2.89143492      -1.19357843       2.18416703
C        2.50865007      -2.50828763       2.44990337
C        1.30678081      -3.00598204       1.93840849
C        0.49459806      -2.19370783       1.14633190
N        3.39726256      -3.41031347       3.10405801
S        4.75949255      -3.94598784       2.24331354
O        5.68755394      -2.84274821       2.11741204
O        5.17146013      -5.19438634       2.84555946
C        4.09844620      -4.28677579       0.61868945
C        4.27135856      -3.27684976      -0.36706716
C        3.64598658      -3.36381798      -1.62383790
C        2.86408127      -4.48756981      -1.83524145
N        2.08181933      -4.86873819      -2.91502105
H        1.89353420      -4.29525845      -3.73120220
C        1.44139424      -6.09452954      -2.70281924
O        0.68407188      -6.63520894      -3.49413174
C        1.90609310      -6.46159481      -1.37970028
C        1.61619586      -7.58055536      -0.60695205
C        2.20085503      -7.63305738       0.66731108
C        3.03275204      -6.59931482       1.15016161
C        3.33147070      -5.46048160       0.35423569
C        2.74870564      -5.47672340      -0.88246827
S        3.86690023      -2.06929228      -2.80884386
O        2.75592557      -2.15468768      -3.73375375
O        4.18519471      -0.85452839      -2.09337066
N        5.25144091      -2.64596297      -3.61633742
C        5.71625583      -1.79051404      -4.66197842
C        5.24144301      -1.96544516      -5.96327279
C        5.67760272      -1.11551758      -6.98067323
C        6.57626453      -0.09068541      -6.68598390
Br       7.17953413       1.04888055      -8.06785830
C        7.02953691       0.10210498      -5.38084123
C        6.58832637      -0.74522807      -4.36203032
H        2.37734664       0.64779387       1.19228603
H        3.83235540      -0.80196740       2.56575547
H        1.00912760      -4.03610437       2.11664282
H       -0.42582867      -2.59625459       0.72997602
H        2.98145536      -4.16312872       3.65047485
H        4.86620468      -2.39182626      -0.13623353
H        0.96766993      -8.36569934      -0.98240693
H        2.00568034      -8.49758316       1.30167656
H        3.44973773      -6.71486635       2.14798748
H        5.07511777      -3.59287545      -3.95374950
H        4.52608349      -2.74923251      -6.19671053
H        5.30772446      -1.25647559      -7.99303284
H        7.72065092       0.90737742      -5.14593950
H        6.93203272      -0.58952607      -3.34261111
