82
Properties=species:S:1:pos:R:3 pbc="F F F"
C        1.78152525       1.78152525      -1.78152525
S        1.41777571       3.39869565      -2.13167918
C        2.82198867       3.55397008      -3.08567397
C        3.55441085       2.39026077      -3.13473096
C        2.94338066       1.34612792      -2.36767694
S        5.02466067       2.18400950      -4.00136422
O        4.66969875       2.29623779      -5.39350441
O        5.98298597       3.03640176      -3.34034943
N        5.57593437       0.61044758      -3.78597384
H        3.33959786       0.34319070      -2.25979776
H        6.49312888       0.64564469      -3.33656128
H        5.62185857       0.15444424      -4.70013404
C        3.14167300       4.79718296      -3.73822562
C        3.40940862       5.83837376      -4.28473763
Br       3.84231447       7.52189121      -5.16840131
C       -1.78152525      -1.78152525      -1.78152525
S       -1.25476056      -3.24888116      -2.44450881
C       -2.76173309      -3.49862738      -3.20127225
C       -3.65018984      -2.47832278      -2.95088997
C       -3.07481114      -1.46693611      -2.11543826
S       -5.25849962      -2.39878097      -3.55275380
O       -5.12824501      -2.25092036      -4.98027558
O       -5.96198352      -3.48428685      -2.91346679
N       -5.98448251      -0.98604510      -3.00182818
H       -3.58619258      -0.56979458      -1.78659916
H       -6.79944716      -1.23725088      -2.43863681
H       -6.24658699      -0.41864329      -3.81120657
C       -3.00542397      -4.67198970      -3.99966792
C       -3.20951508      -5.65468063      -4.66832429
Br      -3.53951314      -7.24360877      -5.74948508
C       -1.78152525       1.78152525       1.78152525
S       -3.36204661       1.36186286       2.22424106
C       -3.54036867       2.80123797       3.12002608
C       -2.41173004       3.58716500       3.08050755
C       -1.37564228       2.98840864       2.29313459
S       -2.23679624       5.10519369       3.86804445
O       -3.16196499       5.99047782       3.20699813
O       -2.26829910       4.81114579       5.28029227
N       -0.70208025       5.71573189       3.55454365
H       -0.39866614       3.42423283       2.11968735
H       -0.20782073       5.82517167       4.44234245
H       -0.80133608       6.60877592       3.06632486
C       -4.76651459       3.09488442       3.81568257
C       -5.79341180       3.34081333       4.39829487
Br      -7.45381773       3.73845956       5.34032970
C        1.78152525      -1.78152525       1.78152525
S        3.30575392      -1.29978645       2.34261017
C        3.51956033      -2.77830560       3.16376679
C        2.44480372      -3.62365297       3.01094589
C        1.42102762      -3.03846562       2.19769226
S        2.31754897      -5.19418866       3.69829676
O        3.33102557      -5.98335893       3.04505644
O        2.25032152      -4.98505931       5.12435632
N        0.84315781      -5.87135935       3.25783862
H        0.48382120      -3.51812788       1.94063724
H        0.30648048      -6.06256087       4.10629350
H        1.02418361      -6.72599025       2.72626299
C        4.71946430      -3.04300938       3.91460790
C        5.72438388      -3.26469879       4.54343733
Br       7.34925384      -3.62315182       5.56020133
C       -0.00445707       0.01189536      -1.78238275
H       -0.66409135       0.67374010      -2.43557963
H        0.65740317      -0.63156657      -2.45157240
C       -0.90989263      -0.90692880      -0.91072765
C        0.90977584       0.90977584      -0.90977584
C       -0.00465871       1.77757030       0.00794375
H       -0.66225468       2.44313916      -0.64384735
H        0.64322798       2.43503045       0.67728295
C       -1.78241447       0.00034974      -0.00472694
H       -2.45427497      -0.65498947       0.64260836
H       -2.43311707       0.67328779      -0.65473579
C       -0.91132561       0.90220522       0.91563759
C       -0.01476271      -0.02253852       1.78660255
H       -0.67934791      -0.69751639       2.42135241
H        0.63392994       0.61504881       2.47327442
C        0.01484550      -1.77751727      -0.01636693
H        0.67870853      -2.42144646      -0.68295456
H       -0.62264859      -2.45592969       0.64226336
C        1.78714474       0.01002794       0.00389507
H        2.44202412       0.67113390       0.66197326
H        2.45385902      -0.65136977      -0.64189061
C        0.91606151      -0.90478549       0.90901405
