61
Properties=species:S:1:pos:R:3 pbc="F F F"
C        0.00000000       0.00000000       0.00000000
C        0.87162122       0.87162122      -0.87162122
S        0.50787168       2.48879162      -1.22177515
C        1.91208465       2.64406605      -2.17576995
C        2.64450683       1.48035675      -2.22482694
C        2.03347663       0.43622389      -1.45777291
S        4.11475665       1.27410548      -3.09146020
O        3.75979472       1.38633377      -4.48360038
O        5.07308194       2.12649774      -2.43044541
N        4.66603035      -0.29945644      -2.87606981
H        2.42969383      -0.56671333      -1.34989374
H        5.58322486      -0.26425933      -2.42665726
H        4.71195454      -0.75545978      -3.79023002
C        2.23176897       3.88727894      -2.82832160
C        2.49950459       4.92846973      -3.37483360
Br       2.93241045       6.61198718      -4.25849729
C       -0.87162122      -0.87162122      -0.87162122
S       -0.32151163      -2.30085725      -1.59606958
C       -1.84319880      -2.57464021      -2.31408164
C       -2.75400059      -1.59082432      -2.00486560
C       -2.18372811      -0.58777056      -1.15597476
S       -4.38208784      -1.54353025      -2.55470422
O       -4.30127340      -1.34827212      -3.98018335
O       -5.03178957      -2.66954094      -1.92869457
N       -5.13308052      -0.17170548      -1.93785771
H       -2.71160346       0.28244982      -0.78372060
H       -5.92193907      -0.46539769      -1.35828603
H       -5.43761378       0.41156043      -2.72067143
C       -2.07600729      -3.73022968      -3.14113253
C       -2.27098440      -4.69803586      -3.83378766
Br      -2.58624590      -6.26289660      -4.95375242
C       -0.87162122       0.87162122       0.87162122
S       -2.44360971       0.44103172       1.33379703
C       -2.62731040       1.88729713       2.21731312
C       -1.50683921       2.68368371       2.15916759
C       -0.47261772       2.08731592       1.36753980
S       -1.33913321       4.21095557       2.93023354
O       -2.27925943       5.08074637       2.26972307
O       -1.35409632       3.93042813       4.34550064
N        0.18643961       4.83322206       2.59586126
H        0.49832996       2.53085692       1.18034729
H        0.68817293       4.95610729       3.47768842
H        0.07374457       5.72045151       2.10001784
C       -3.84947858       2.17584893       2.92204199
C       -4.87304444       2.41751106       3.51225242
Br      -6.52806386       2.80825829       4.46657277
C        0.87162122      -0.87162122       0.87162122
S        2.37004110      -0.36770488       1.48069248
C        2.60011667      -1.86020914       2.27159484
C        1.55006370      -2.72678520       2.07284161
C        0.53193193      -2.14644532       1.24909619
S        1.44466622      -4.31607748       2.71957862
O        2.49212246      -5.06500892       2.07259749
O        1.33869071      -4.14319641       4.14813797
N       -0.00206383      -5.01705678       2.22765076
H       -0.38704167      -2.64176871       0.95814721
H       -0.55386589      -5.24138867       3.05810000
H        0.21212712      -5.85404268       1.68055498
C        3.78798921      -2.11457266       3.04480764
C        4.78283247      -2.32760211       3.69237335
Br       6.39140987      -2.67205271       4.73943234
