158
Properties=species:S:1:pos:R:3 pbc="F F F"
O        2.82672302      -2.24291108      -4.58451204
C        3.71073414      -2.89303667      -5.13274300
C        5.15982502      -2.77030114      -4.68587082
S        6.09567876      -1.72735031      -5.83677214
C        5.43287411      -0.16300017      -5.46894997
N        5.70158139       0.93206751      -6.15025354
N        4.99711275       1.95733110      -5.54398133
C        4.34026213       1.41146201      -4.54163441
O        4.59317233       0.07327887      -4.41905776
C        3.44731153       2.00182231      -3.55551433
C        3.39282319       3.39624966      -3.40536374
C        2.55419404       3.98006752      -2.45210409
C        1.75344091       3.17663805      -1.64193017
C        1.79227032       1.79227032      -1.79227032
C        2.62945393       1.20312726      -2.73996225
N        3.54569160      -3.79058141      -6.17761247
C        2.35004670      -4.11987304      -6.84839036
C        1.10314283      -3.57140074      -6.54035820
C       -0.03360499      -3.93629947      -7.27155575
C        0.07375946      -4.85512733      -8.31126171
Br      -1.45940309      -5.33787854      -9.30452780
C        1.30741117      -5.41743631      -8.62447823
C        2.44117131      -5.04946677      -7.89358943
H        5.61459990      -3.76608098      -4.65792803
H        5.19907737      -2.37349875      -3.66601690
H        4.01278646       4.03842897      -4.03020795
H        2.52682593       5.06142307      -2.34222605
H        1.10337336       3.63642791      -0.90221306
H        2.63696305       0.11950759      -2.84976461
H        4.38523334      -4.23305797      -6.53412378
H        0.97575508      -2.84875366      -5.74069709
H       -0.99296233      -3.49112969      -7.01979434
H        1.39948214      -6.13673536      -9.43396989
H        3.39453822      -5.49977464      -8.15934854
O       -5.53905637      -1.09699433       1.46772673
C       -6.42797426      -1.63891617       2.11644996
C       -6.37155514      -3.12782847       2.42398890
S       -7.48722837      -4.04751791       1.32964569
C       -6.63631732      -3.92156292      -0.18094367
N       -7.12026892      -4.32610539      -1.33752814
N       -6.14662206      -4.06594248      -2.28586064
C       -5.14171727      -3.51112354      -1.64051773
O       -5.37410306      -3.41493717      -0.29646873
C       -3.85115447      -3.03625316      -2.11724054
C       -3.40389856      -3.39112304      -3.39941499
C       -2.16019846      -2.95870353      -3.86746365
C       -1.35114661      -2.15920012      -3.06166241
C       -1.79227032      -1.79227032      -1.79227032
C       -3.03145976      -2.22306323      -1.31802045
N       -7.55366496      -1.02416109       2.64510339
C       -7.93189343       0.32874710       2.52458231
C       -7.19255254       1.28940364       1.83104861
C       -7.65086083       2.60912894       1.74008060
C       -8.84934811       2.97238850       2.34706577
Br      -9.47217410       4.75129207       2.21363586
C       -9.59289429       2.02899438       3.04944681
C       -9.13343164       0.71131761       3.13682005
H       -6.67560764      -3.29368447       3.46284517
H       -5.34023612      -3.48451501       2.33315561
H       -4.02380813      -4.01603629      -4.04157896
H       -1.82352867      -3.24652552      -4.86042085
H       -0.38482726      -1.82611949      -3.43106757
H       -3.36319490      -1.91597584      -0.32706451
H       -8.20696660      -1.62013987       3.14080733
H       -6.25539231       1.04785946       1.33983435
H       -7.06329148       3.33893527       1.18865389
H      -10.52910751       2.30490067       3.52749017
H       -9.73362664      -0.00854987       3.68806438
O       -1.88003023      -1.89829665       5.18659040
C       -2.58610666      -2.56853545       5.93286927
C       -4.08222332      -2.69338228       5.68655368
S       -5.00652935      -1.62155790       6.82012914
C       -4.62611656      -0.05560342       6.16831077
N       -4.96167981       1.08351969       6.73870294
N       -4.49290783       2.09126252       5.91425483
C       -3.89518803       1.49383444       4.90433607
O       -3.96696517       0.13088608       4.98765772
C       -3.22654531       2.04374068       3.73436218
C       -3.39174565       3.39798492       3.40470602
C       -2.77138339       3.93938384       2.27559841
C       -1.97142508       3.13465267       1.46593139
C       -1.79227032       1.79227032       1.79227032
C       -2.41114650       1.24502610       2.91637084
N       -2.16469519      -3.27924161       7.04726908
C       -0.85977233      -3.35678260       7.57557430
C        0.24718879      -2.70650802       7.02579710
C        1.50695350      -2.81771144       7.62631623
C        1.66333957      -3.58412911       8.77736253
Br       3.36195676      -3.72387124       9.59307417
C        0.57202075      -4.24558658       9.33206042
C       -0.68521248      -4.13095043       8.73103193
H       -4.38942737      -3.73186770       5.84888727
H       -4.30522497      -2.45494885       4.64131942
H       -4.01428330       4.04045814       4.02668193
H       -2.91328752       4.98865644       2.02853108
H       -1.49168544       3.56131530       0.58901359
H       -2.24943104       0.19600417       3.16080004
H       -2.88086721      -3.76754738       7.57297931
H        0.16861400      -2.09576879       6.13208130
H        2.35347001      -2.29675591       7.18592823
H        0.68601695      -4.84721161      10.22994523
H       -1.52336031      -4.65419405       9.18494586
O        5.60542648      -0.90448669      -1.34158920
C        6.52646108      -1.40368495      -1.97970556
C        6.52007400      -2.88440090      -2.32908019
S        7.63084823      -3.80364315      -1.22939079
C        6.73598140      -3.74315665       0.25968585
N        7.19942008      -4.16656424       1.41791813
N        6.19344992      -3.95959093       2.34538434
C        5.19134948      -3.41448174       1.68752732
O        5.45742208      -3.27447323       0.35361365
C        3.87552784      -2.98839844       2.14072189
C        3.40366333      -3.39100741       3.39976585
C        2.13609143      -3.00582571       3.84444850
C        1.32721812      -2.20640591       3.03838511
C        1.79227032      -1.79227032       1.79227032
C        3.05545816      -2.17577597       1.34130931
N        7.64848587      -0.74400392      -2.45976713
C        7.98532581       0.61479175      -2.29197004
C        7.20082924       1.53522124      -1.59350771
C        7.61941949       2.86386332      -1.45390487
C        8.82334679       3.27640988      -2.01704307
Br       9.39233759       5.06716797      -1.81792345
C        9.61180347       2.37359140      -2.72375898
C        9.19190470       1.04686439      -2.85974634
H        6.85678465      -3.01281855      -3.36315626
H        5.49704123      -3.27140317      -2.27684887
H        4.02310756      -4.01653902       4.04177680
H        1.78071999      -3.33034471       4.81941034
H        0.34227583      -1.91018610       3.38955239
H        3.40530568      -1.83219638       0.36873319
H        8.33143325      -1.30790374      -2.95303785
H        6.25777586       1.25464107      -1.13543628
H        6.99689754       3.56171869      -0.89947654
H       10.55259171       2.68811355      -3.16776149
H        9.82675986       0.35927858      -3.41336915
C       -0.00445707       0.01189536      -1.78238275
H       -0.66409135       0.67374010      -2.43557963
H        0.65740317      -0.63156657      -2.45157240
C       -0.90989263      -0.90692880      -0.91072765
C        0.90977584       0.90977584      -0.90977584
C       -0.00465871       1.77757030       0.00794375
H       -0.66225468       2.44313916      -0.64384735
H        0.64322798       2.43503045       0.67728295
C       -1.78241447       0.00034974      -0.00472694
H       -2.45427497      -0.65498947       0.64260836
H       -2.43311707       0.67328779      -0.65473579
C       -0.91132561       0.90220522       0.91563759
C       -0.01476271      -0.02253852       1.78660255
H       -0.67934791      -0.69751639       2.42135241
H        0.63392994       0.61504881       2.47327442
C        0.01484550      -1.77751727      -0.01636693
H        0.67870853      -2.42144646      -0.68295456
H       -0.62264859      -2.45592969       0.64226336
C        1.78714474       0.01002794       0.00389507
H        2.44202412       0.67113390       0.66197326
H        2.45385902      -0.65136977      -0.64189061
C        0.91606151      -0.90478549       0.90901405
