165
Properties=species:S:1:pos:R:3 pbc="F F F"
C        0.00000000       0.00000000       0.00000000
C        7.80663847       1.98103157      -3.99174881
C        7.17900004       2.02135591      -5.38029667
N        6.53519481       3.31157175      -5.63295179
C        5.23701304       3.62653143      -5.31892622
S        4.21840498       2.37239260      -4.63849487
C        3.36579226       3.36492711      -3.37632045
C        2.49689845       2.50155016      -2.49566287
C        3.03236966       1.86338885      -1.36632513
C        2.22611485       1.05679665      -0.56006925
C        0.88178861       0.88178861      -0.88178861
C        0.33643893       1.50267579      -2.00315262
C        1.14319787       2.30764970      -2.80974216
N        4.70240782       4.79015679      -5.48756355
N        5.45120690       5.86242210      -5.95503248
C        6.70309634       5.69949494      -6.25463057
N        7.58485830       6.69185097      -6.65772086
C        7.60708530       8.02257602      -6.18940993
C        8.80984802       8.74395586      -6.28710146
C        8.91066521      10.05679947      -5.81487939
C        7.79592435      10.67612334      -5.26091120
Br       7.92901783      12.44058758      -4.59995202
C        6.58279132      10.00041855      -5.19487594
C        6.49035222       8.68562244      -5.66663084
C        7.32740587       4.31370734      -6.14201452
O        8.50888277       4.21043744      -6.46850638
H        8.27823477       1.01001965      -3.81430126
H        7.05952783       2.14775934      -3.20944102
H        8.57315271       2.75632658      -3.88537489
H        6.46568360       1.20087533      -5.49473235
H        7.96271914       1.85518656      -6.12862101
H        2.74981781       4.13426886      -3.85537476
H        4.10685155       3.88515787      -2.75792372
H        4.08200191       1.98922499      -1.10932791
H        2.65523197       0.56995898       0.31159183
H       -0.71053786       1.36586857      -2.26001543
H        0.70992232       2.78318017      -3.68787403
H        8.51787534       6.32375674      -6.84321526
H        9.69612566       8.28069124      -6.71577318
H        9.86098122      10.57936047      -5.88127672
H        5.69961582      10.47869899      -4.77938487
H        5.51999564       8.20033872      -5.61063063
C       -1.38170633      -5.18855963      -7.20915289
C       -1.83737749      -6.37531289      -6.36796224
N       -3.24531878      -6.24577682      -5.98862275
C       -3.71038134      -5.60330110      -4.86878824
S       -2.54012385      -4.95111841      -3.73805019
C       -3.36727401      -3.37604443      -3.36372137
C       -2.50108863      -2.49488234      -2.49814050
C       -1.54540824      -1.64331039      -3.07336500
C       -0.73882961      -0.83711483      -2.26703631
C       -0.88178861      -0.88178861      -0.88178861
C       -1.82091553      -1.72663022      -0.29472159
C       -2.62592526      -2.53354559      -1.10111888
N       -4.95895343      -5.43977525      -4.58139948
N       -5.95622200      -5.86096027      -5.45147921
C       -5.64207698      -6.45227304      -6.56287183
N       -6.52481487      -6.85518154      -7.55443373
C       -7.69432463      -6.17315933      -7.95158729
C       -8.19276740      -6.40204879      -9.24608917
C       -9.33022758      -5.73672498      -9.71539152
C      -10.00175256      -4.85001829      -8.88118805
Br     -11.52515830      -3.93007726      -9.51432186
C       -9.55591987      -4.64105337      -7.58111256
C       -8.41498766      -5.30811740      -7.11950043
C       -4.17670206      -6.72891510      -6.87751057
O       -3.93825887      -7.31990403      -7.92966370
H       -0.32719287      -5.29538974      -7.47997306
H       -1.50333224      -4.24442705      -6.66896890
H       -1.96499467      -5.11631630      -8.13354320
H       -1.20301738      -6.47504089      -5.48323300
H       -1.70228552      -7.29478971      -6.94945149
H       -4.32037895      -3.56281688      -2.85626562
H       -3.59805993      -2.85269940      -4.29917381
H       -1.42214785      -1.60479495      -4.15361201
H       -0.00385939      -0.18229532      -2.72744442
H       -1.93314962      -1.76755983       0.78536331
H       -3.35221435      -3.19567838      -0.63308380
H       -6.04581059      -7.30370165      -8.33533510
H       -7.68422632      -7.09054179      -9.91782197
H       -9.67621352      -5.91569451     -10.72971038
H      -10.08120232      -3.96320035      -6.91329701
H       -8.11061758      -5.12805987      -6.09228754
C       -1.52418577       7.42831590       4.82691718
C       -2.76498184       7.79481061       4.02086016
N       -3.93777648       7.05376668       4.48817519
C       -4.32672995       5.81686055       4.03888018
S       -3.41220612       5.07949405       2.73759228
C       -3.37292740       3.37241745       3.36169497
C       -2.49880125       2.49462202       2.50068821
C       -1.11684090       2.41413931       2.73110341
C       -0.31038214       1.60799500       1.92460361
C       -0.88178861       0.88178861       0.88178861
C       -2.25080186       0.95597615       0.63548932
C       -3.05636265       1.76322109       1.44100600
N       -5.32621998       5.14633180       4.50757638
N       -6.06522965       5.61915564       5.58427619
C       -5.77258964       6.76362743       6.12100478
N       -6.37286049       7.32069630       7.24087335
C       -6.82635885       6.61647543       8.37623697
C       -6.93561456       7.31232670       9.59296410
C       -7.34961144       6.66879207      10.76394057
C       -7.68694085       5.32052631      10.72549173
Br      -8.22502614       4.43803239      12.30649890
C       -7.63162791       4.62115140       9.52530650
C       -7.21335560       5.27114046       8.35810944
C       -4.65049981       7.60631002       5.52631790
O       -4.43653838       8.69612119       6.05516702
H       -0.65503909       7.98426872       4.46324786
H       -1.30180370       6.35897611       4.75594838
H       -1.66121976       7.66627423       5.88736018
H       -2.58907491       7.61527769       2.95693867
H       -2.95092787       8.87012306       4.12547578
H       -4.38751620       2.95953668       3.39240856
H       -2.99239877       3.36754100       4.38999337
H       -0.65996569       2.98121737       3.53937174
H        0.75803100       1.55549858       2.11613154
H       -2.70009767       0.39436226      -0.17911378
H       -4.12404190       1.82031505       1.23661957
H       -5.97873144       8.23215343       7.47396247
H       -6.67640913       8.36758958       9.64859137
H       -7.39953886       7.22771134      11.69436822
H       -7.90843917       3.57113548       9.47812503
H       -7.20003951       4.69162913       7.43929635
C        8.00601854      -3.02766189       2.74573842
C        7.74608879      -2.63818286       4.19638097
N        6.94455097      -3.65354167       4.88162570
C        5.57329665      -3.69285278       4.91632125
S        4.68456692      -2.38440484       4.16032069
C        3.36856658      -3.36290546       3.37556778
C        2.49567999      -2.50155462       2.49687686
C        2.84959497      -2.25011801       1.16237065
C        2.04340610      -1.44354329       0.35603136
C        0.88178861      -0.88178861       0.88178861
C        0.51991760      -1.11595570       2.20639404
C        1.32698490      -1.92105418       3.01255065
N        4.87942741      -4.63159900       5.46910175
N        5.49515607      -5.74251970       6.03098572
C        6.78908445      -5.83884174       6.02929567
N        7.53072718      -6.91946769       6.48423526
C        7.17483882      -8.27950439       6.36472805
C        8.19868007      -9.24235689       6.39986840
C        7.91990233     -10.60563674       6.25680500
C        6.60362047     -11.02620451       6.10313392
Br       6.22015641     -12.86301934       5.88638167
C        5.56880820     -10.09791295       6.11136465
C        5.85580295      -8.73494480       6.25185775
C        7.62552171      -4.70049840       5.45710762
O        8.84758684      -4.83072903       5.50951072
H        8.60012709      -2.25781583       2.24461276
H        7.07088117      -3.15454280       2.19130422
H        8.55486752      -3.97379150       2.68619515
H        7.25857690      -1.66075803       4.24195634
H        8.70744498      -2.52755676       4.71152497
H        2.75165350      -3.84649843       4.14130951
H        3.81664490      -4.16119555       2.77209269
H        3.75725583      -2.67961249       0.74368648
H        2.33046069      -1.25881461      -0.67567617
H       -0.38310410      -0.67673475       2.62171548
H        1.03980421      -2.09275567       4.04841665
H        8.53412852      -6.76462425       6.38609456
H        9.23656743      -8.93793151       6.51809115
H        8.73548417     -11.32353071       6.26260353
H        4.53417850     -10.41476696       6.00875422
H        5.01646318      -8.04542295       6.26907886
