186
Properties=species:S:1:pos:R:3 pbc="F F F"
C        8.71654249       2.89093560      -4.90165284
C        8.08890407       2.93125993      -6.29020069
N        7.44509883       4.22147578      -6.54285581
C        6.14691706       4.53643545      -6.22883024
S        5.12830901       3.28229662      -5.54839890
C        4.27569629       4.27483113      -4.28622447
C        3.40680247       3.41145418      -3.40556690
C        3.94227368       2.77329287      -2.27622915
C        3.13601887       1.96670067      -1.46997327
C        1.79169263       1.79169263      -1.79169263
C        1.24634295       2.41257981      -2.91305665
C        2.05310190       3.21755373      -3.71964618
N        5.61231185       5.70006081      -6.39746757
N        6.36111093       6.77232613      -6.86493650
C        7.61300037       6.60939896      -7.16453459
N        8.49476232       7.60175500      -7.56762489
C        8.51698932       8.93248005      -7.09931396
C        9.71975205       9.65385989      -7.19700549
C        9.82056924      10.96670350      -6.72478341
C        8.70582838      11.58602737      -6.17081522
Br       8.83892185      13.35049160      -5.50985604
C        7.49269534      10.91032257      -6.10477996
C        7.40025624       9.59552646      -6.57653486
C        8.23730989       5.22361137      -7.05191854
O        9.41878680       5.12034147      -7.37841040
H        9.18813880       1.91992367      -4.72420528
H        7.96943185       3.05766337      -4.11934505
H        9.48305673       3.66623060      -4.79527891
H        7.37558762       2.11077935      -6.40463637
H        8.87262317       2.76509058      -7.03852504
H        3.65972183       5.04417289      -4.76527879
H        5.01675558       4.79506190      -3.66782774
H        4.99190593       2.89912901      -2.01923193
H        3.56513600       1.47986301      -0.59831219
H        0.19936616       2.27577260      -3.16991945
H        1.61982635       3.69308419      -4.59777806
H        9.42777937       7.23366076      -7.75311928
H       10.60602969       9.19059527      -7.62567720
H       10.77088524      11.48926450      -6.79118075
H        6.60951984      11.38860301      -5.68928890
H        6.42989967       9.11024274      -6.52053465
C       -2.32617359      -8.18065248      -6.00230485
C       -3.51112959      -8.63912939      -5.16010571
N       -4.73573875      -7.93307144      -5.54062022
C       -5.15769462      -6.73641597      -5.01807217
S       -4.21753209      -6.01573298      -3.72573945
C       -4.28233603      -4.28281751      -4.27159835
C       -3.40897644      -3.40445140      -3.41039571
C       -2.04399963      -3.25026368      -3.69753240
C       -1.23752512      -2.44412053      -2.89104717
C       -1.79169263      -1.79169263      -1.79169263
C       -3.14329380      -1.93970108      -1.48898453
C       -3.94877833      -2.74694453      -2.29457894
N       -6.20630818      -6.09267863      -5.41085342
N       -6.97261740      -6.55116283      -6.47459332
C       -6.65488345      -7.65615958      -7.07589089
N       -7.28101402      -8.19041840      -8.19270980
C       -7.81696872      -7.45850563      -9.27330897
C       -7.95143348      -8.10435779     -10.51482615
C       -8.44693468      -7.42961709     -11.63550438
C       -8.84122098      -6.10134313     -11.52010686
Br      -9.48999289      -5.17578116     -13.03349544
C       -8.76150711      -5.45373252     -10.29255825
C       -8.26162900      -6.13455084      -9.17613773
C       -5.47052435      -8.47160009      -6.57071536
O       -5.23335434      -9.52602218      -7.15816214
H       -1.41752946      -8.71142819      -5.70331010
H       -2.14809671      -7.10636444      -5.89197911
H       -2.50133340      -8.37771190      -7.06552095
H       -3.29444087      -8.49873750      -4.09782497
H       -3.65413268      -9.71621528      -5.30589083
H       -5.31447038      -3.91620106      -4.23850207
H       -3.95020634      -4.21509107      -5.31434781
H       -1.60032909      -3.75950380      -4.55043398
H       -0.18243096      -2.33403181      -3.12684844
H       -3.57886751      -1.43584371      -0.63034700
H       -5.00234466      -2.86215426      -2.04618968
H       -6.85826713      -9.07157676      -8.48471551
H       -7.64881637      -9.14307026     -10.63041552
H       -8.51502661      -7.94869759     -12.58760628
H       -9.08185237      -4.42069586     -10.18486352
H       -8.23151680      -5.59609632      -8.23306394
C       -2.45445264       8.36347041       5.69120787
C       -3.70421620       8.71415019       4.89199831
N       -4.86760164       7.96775154       5.37407724
C       -5.25039960       6.72444432       4.93733883
S       -4.34022420       5.98406908       3.63471124
C       -4.28291387       4.28223443       4.27160358
C       -3.40865836       3.40454092       3.41062427
C       -2.02438411       3.33647964       3.63093195
C       -1.21792809       2.53033499       2.82442973
C       -1.79169263       1.79169263       1.79169263
C       -3.16309395       1.85343558       1.55544987
C       -3.96866813       2.66068008       2.36095359
N       -6.24102678       6.04990047       5.41891298
N       -6.97537538       6.52535794       6.49764024
C       -6.68749601       7.67617325       7.02326466
N       -7.28343506       8.23727258       8.14343457
C       -7.72271373       7.53840654       9.28766306
C       -7.82799768       8.24280787      10.49981187
C       -8.22797373       7.60520437      11.67887805
C       -8.55512711       6.25412612      11.65341774
Br      -9.07417767       5.37980158      13.24529025
C       -8.50362814       5.54591463      10.45825511
C       -8.09939789       6.19003437       9.28288531
C       -5.57658004       8.52282707       6.41343269
O       -5.36701145       9.61831872       6.93220850
H       -1.59246496       8.92325668       5.31654610
H       -2.22434029       7.29535488       5.62674510
H       -2.58516584       8.60858094       6.75081946
H       -3.53511205       8.52773364       3.82815766
H       -3.89768216       9.78877913       4.98977750
H       -5.29400529       3.86181184       4.31335638
H       -3.89446014       4.28825673       5.29692835
H       -1.56571465       3.91330396       4.43124827
H       -0.14769843       2.48754498       3.00806779
H       -3.61427555       1.28208430       0.74869836
H       -5.03829851       2.70797333       2.16441676
H       -6.89460208       9.15351401       8.36644331
H       -7.57656015       9.30043294      10.54530907
H       -8.27507374       8.17091888      12.60533787
H       -8.77264616       4.49346627      10.42129932
H       -8.08865805       5.60353744       8.36848157
C        8.29407449      -2.40069278       5.81436365
C        7.49216267      -2.75756301       7.06063901
N        7.04081026      -4.14951580       7.01910436
C        5.86979818      -4.58831959       6.45406498
S        4.76464605      -3.39555766       5.79880082
C        4.27406844      -4.27658781       4.28609563
C        3.40774383      -3.41113959       3.40494013
C        3.98453706      -2.52642330       2.48083534
C        3.17822677      -1.71983897       1.67462708
C        1.79169263      -1.79169263       1.79169263
C        1.20353271      -2.65962511       2.70882159
C        2.01002120      -3.46461363       3.51566697
N        5.51602140      -5.82743963       6.36637921
N        6.35784564      -6.84560642       6.79492149
C        7.51077347      -6.55936358       7.31679687
N        8.47829709      -7.47015269       7.71569242
C        8.78549048      -8.68880871       7.07448413
C       10.06476429      -9.23943671       7.26641642
C       10.44627825     -10.42890593       6.63687197
C        9.53837264     -11.09937771       5.82492062
Br      10.05248932     -12.69403036       4.95274981
C        8.25204165     -10.60001928       5.65573695
C        7.87845008      -9.40738517       6.28648232
C        7.90758028      -5.09995869       7.50530083
O        8.99781693      -4.88631914       8.03340260
H        8.61934804      -1.35703204       5.85588766
H        7.70261824      -2.53984037       4.90398165
H        9.18517284      -3.03184190       5.72755150
H        6.64440622      -2.07612993       7.17046719
H        8.12424107      -2.60819249       7.94380523
H        3.73205546      -5.19348520       4.54363285
H        5.17048889      -4.57791058       3.73124574
H        5.06616111      -2.45881372       2.38529204
H        3.63980328      -1.04033358       0.96317434
H        0.12271070      -2.71612829       2.80621922
H        1.54160802      -4.13473489       4.23434569
H        9.30221597      -7.00979899       8.10254445
H       10.79305980      -8.73287311       7.89636925
H       11.45075097     -10.81590456       6.78467495
H        7.52739105     -11.12297673       5.03704397
H        6.85909456      -9.06131705       6.14026545
C       -0.00445707       0.01189536      -1.78238275
H       -0.66409135       0.67374010      -2.43557963
H        0.65740317      -0.63156657      -2.45157240
C       -0.90989263      -0.90692880      -0.91072765
C        0.90977584       0.90977584      -0.90977584
C       -0.00465871       1.77757030       0.00794375
H       -0.66225468       2.44313916      -0.64384735
H        0.64322798       2.43503045       0.67728295
C       -1.78241447       0.00034974      -0.00472694
H       -2.45427497      -0.65498947       0.64260836
H       -2.43311707       0.67328779      -0.65473579
C       -0.91132561       0.90220522       0.91563759
C       -0.01476271      -0.02253852       1.78660255
H       -0.67934791      -0.69751639       2.42135241
H        0.63392994       0.61504881       2.47327442
C        0.01484550      -1.77751727      -0.01636693
H        0.67870853      -2.42144646      -0.68295456
H       -0.62264859      -2.45592969       0.64226336
C        1.78714474       0.01002794       0.00389507
H        2.44202412       0.67113390       0.66197326
H        2.45385902      -0.65136977      -0.64189061
C        0.91606151      -0.90478549       0.90901405
