165
Properties=species:S:1:pos:R:3 pbc="F F F"
C        0.00000000       0.00000000       0.00000000
C        1.80864903       4.93549399      -7.93130861
C        2.82223999       4.25021402      -7.02414407
N        3.67616003       5.21593062      -6.32939822
C        3.59582063       5.54895528      -5.00258670
S        2.35419151       4.80066730      -4.02061155
C        3.32737459       3.40364457      -3.38571010
C        2.48627479       2.50757146      -2.50718173
C        2.05423004       1.25138878      -2.96071237
C        1.25634475       0.43944538      -2.14886271
C        0.88183889       0.88183889      -0.88183889
C        1.30225263       2.12429671      -0.41530839
C        2.10456973       2.93207506      -1.22435500
N        4.36129480       6.40230498      -4.40677635
N        5.31435858       7.12639440      -5.12191408
C        5.46252316       6.91691047      -6.39580915
N        6.32393672       7.62133228      -7.22948837
C        6.70751336       8.97094382      -7.12601074
C        7.69101421       9.45312117      -8.00751440
C        8.14679369      10.77406172      -7.93838895
C        7.63132610      11.63749561      -6.97647737
C        6.67164232      11.16892778      -6.08467595
Br       5.96352377      12.33770281      -4.77622344
C        6.22201500       9.84749763      -6.14726664
C        4.66612956       5.81525282      -7.07490924
O        4.95182627       5.55677904      -8.24111126
H        1.12627958       4.19589891      -8.36188411
H        2.30544887       5.45249043      -8.75848170
H        1.21731426       5.67428857      -7.38145522
H        3.45921860       3.59209125      -7.62446322
H        2.28885157       3.60222162      -6.32389859
H        4.19206820       3.76556550      -2.81878647
H        3.71802796       2.83088862      -4.23489995
H        2.33079409       0.89381884      -3.95041741
H        0.92895722      -0.53040585      -2.51450071
H        1.00854406       2.47735036       0.56952995
H        2.41972563       3.90614611      -0.85369427
H        6.36341253       7.25646055      -8.17981847
H        8.12218501       8.79578228      -8.75985889
H        8.90761488      11.12523619      -8.63133556
H        7.98463389      12.66351968      -6.92432112
H        5.47112990       9.52155703      -5.43324683
C       -8.22815789      -4.23596794      -2.21132579
C       -6.82472557      -4.72014418      -2.55172833
N       -6.56178506      -4.66831047      -3.99139333
C       -5.76410783      -3.75442893      -4.62882585
S       -4.99728431      -2.49913560      -3.67905044
C       -3.41463705      -3.33547814      -3.36661407
C       -2.51415849      -2.49113069      -2.49573879
C       -2.29389186      -2.82275289      -1.14968644
C       -1.47747574      -2.02157036      -0.34560673
C       -0.88183889      -0.88183889      -0.88183889
C       -1.08825609      -0.53849384      -2.21510780
C       -1.89876578      -1.34282445      -3.01940956
N       -5.54201977      -3.72710114      -5.90125521
N       -6.18527729      -4.62057645      -6.75681331
C       -6.99009513      -5.51647416      -6.26867350
N       -7.74222809      -6.41305991      -7.01946937
C       -8.29726380      -6.21088319      -8.29632093
C       -8.92156578      -7.29915689      -8.93092710
C       -9.46332972      -7.18053517     -10.21537948
C       -9.38209002      -5.96866364     -10.89454540
C       -8.74988763      -4.88835010     -10.28700833
Br      -8.63841287      -3.23644420     -11.20259295
C       -8.20088256      -5.00814683      -9.00774989
C       -7.14618884      -5.64728229      -4.76282050
O       -7.79701083      -6.60330275      -4.34940298
H       -8.36139818      -4.19704400      -1.12562041
H       -8.98794790      -4.91175278      -2.61672032
H       -8.41532276      -3.23797726      -2.61975803
H       -6.70654660      -5.75516396      -2.21406251
H       -6.09988698      -4.13010551      -1.98497928
H       -2.90653059      -3.55879626      -4.31109331
H       -3.61358334      -4.29502268      -2.87521050
H       -2.75758092      -3.70474087      -0.71270854
H       -1.31721369      -2.29100387       0.69516548
H       -0.63127981       0.35236070      -2.63744536
H       -2.06152523      -1.05988956      -4.05815122
H       -8.24846065      -7.09470509      -6.45652581
H       -8.98615147      -8.26252327      -8.42915143
H       -9.94242258      -8.03565650     -10.68610754
H       -9.80429898      -5.87684497     -11.89133074
H       -7.71669575      -4.14060420      -8.56863380
C       -8.42645710       3.17845530       3.07053922
C       -7.11029753       3.94449772       3.04180283
N       -6.60924864       4.22287900       4.38936123
C       -5.55259431       3.59724853       4.99751976
S       -4.71907193       2.32217460       4.13422382
C       -3.40684926       3.32863207       3.38124793
C       -2.51262455       2.48825756       2.50014587
C       -2.58679819       2.57822647       1.10130653
C       -1.77137196       1.77897456       0.29430631
C       -0.88183889       0.88183889       0.88183889
C       -0.79406189       0.78028664       2.26750920
C       -1.60436801       1.58359560       3.07303617
N       -5.12337205       3.85945897       6.18754511
N       -5.78129895       4.78656148       6.99480662
C       -6.81674408       5.42321924       6.53527946
N       -7.59771685       6.31467035       7.26237017
C       -7.88405099       6.28103145       8.63938548
C       -8.59858402       7.35570550       9.19736025
C       -8.88739859       7.40649283      10.56535294
C       -8.45712821       6.38339334      11.40477753
C       -7.73208765       5.32307316      10.87008524
Br      -7.14654805       3.92658549      12.00431648
C       -7.43565489       5.27564083       9.50548356
C       -7.24107741       5.22560366       5.08961055
O       -8.12734457       5.96048110       4.66189090
H       -8.72600028       2.90382952       2.05423279
H       -9.22787145       3.78685685       3.50169270
H       -8.34243121       2.26425701       3.66636984
H       -7.25668507       4.89715520       2.52193280
H       -6.38617408       3.38123651       2.44756118
H       -2.80483036       3.81508885       4.15650095
H       -3.86999446       4.12575890       2.78806317
H       -3.28144683       3.26766672       0.62591678
H       -1.84101338       1.85946975      -0.78743105
H       -0.10655012       0.07827441       2.73153994
H       -1.53479867       1.48924126       4.15552608
H       -8.31449219       6.77856970       6.70662965
H       -8.93436065       8.17656127       8.56690425
H       -9.44236805       8.24728039      10.97453818
H       -8.68302542       6.42274228      12.46670699
H       -6.86810472       4.42995143       9.12787760
C        2.46228616      -8.33058925       3.88257621
C        2.68791185      -6.94208841       4.46659782
N        4.10942308      -6.59406120       4.51800459
C        4.74848107      -5.70670063       3.69218091
S        3.82746093      -4.92057260       2.42743683
C        3.37133881      -3.41256607       3.33282438
C        2.49712894      -2.51381209       2.49008694
C        1.12328776      -2.39203716       2.75100627
C        0.31828789      -1.57584149       1.95052345
C        0.88183889      -0.88183889       0.88183889
C        2.24277048      -0.98983293       0.60925432
C        3.04744973      -1.80032248       1.41322758
N        6.00443130      -5.41050237       3.75544246
N        6.84484131      -6.05682444       4.66100130
C        6.35602048      -6.94161074       5.47761156
N        7.09850825      -7.70264297       6.37360615
C        8.41638921      -8.16989429       6.21818442
C        9.02425885      -8.82193994       7.30545098
C       10.34409494      -9.28063194       7.23451749
C       11.08564334      -9.08658088       6.07307485
C       10.50380672      -8.42559109       4.99584824
Br      11.50441603      -8.16093173       3.41210226
C        9.18863640      -7.95945637       5.06868651
C        4.85748439      -7.19180022       5.50700701
O        4.43025727      -7.92250572       6.39695358
H        1.39078763      -8.52346144       3.76981353
H        2.87376491      -9.10564312       4.53701296
H        2.93814013      -8.43263856       2.90227936
H        2.28465705      -6.90697079       5.48414523
H        2.11284788      -6.21638502       3.88573888
H        4.26860339      -2.86553874       3.64227804
H        2.83860000      -3.69769277       4.24752376
H        0.66541473      -2.93310413       3.57651148
H       -0.74410639      -1.49249342       2.16466505
H        2.68697504      -0.45575605      -0.22636662
H        4.10875011      -1.88545141       1.18536449
H        6.52924127      -8.28111658       6.98933370
H        8.47275865      -8.97401023       8.23105730
H       10.79321319      -9.78317176       8.08780168
H       12.10998285      -9.44433092       6.01816092
H        8.77142232      -7.44926277       4.20524866
