161
Properties=species:S:1:pos:R:3 pbc="F F F"
C        0.00000000       0.00000000       0.00000000
C        0.88181224       0.88181224      -0.88181224
C        1.66803256       0.30080523      -1.87392909
C        2.47405387       1.10759630      -2.67998455
C        2.48953752       2.50145233      -2.50903994
C        1.69389770       3.06816225      -1.50115619
C        0.89387359       2.26080748      -0.68861819
C        3.35634583       3.38165418      -3.38057287
S        2.82158891       3.34904191      -5.11862692
C        4.05050502       4.38283803      -5.82793822
N        4.53178662       5.33310184      -5.09613461
N        5.50568638       6.19254210      -5.59211057
C        5.94120218       6.05577800      -6.80566892
N        6.90024506       6.84304769      -7.41897675
C        7.87362172       7.67129962      -6.83472791
C        8.07573199       7.78538053      -5.45400228
C        9.04738257       8.64523047      -4.92926249
C        9.82178697       9.42764938      -5.77947958
C        9.61248483       9.35070136      -7.15211711
C        8.64623571       8.48845846      -7.67719217
C        5.37327010       4.94756365      -7.68957223
O        5.82237308       4.86104303      -8.83015230
N        4.42217263       4.13317351      -7.12333925
C        3.89699981       3.03681138      -7.92439790
H        1.65999729      -0.77457278      -2.02935363
H        3.08412236       0.64189671      -3.45133494
H        1.69049592       4.14493191      -1.34105966
H        0.28494835       2.71819011       0.08719029
H        4.39509134       3.04036621      -3.30621700
H        3.32112175       4.41239202      -3.01066513
H        7.07674561       6.60174417      -8.39257024
H        7.49687927       7.19461243      -4.74936241
H        9.19220221       8.70029243      -3.85291201
H       10.57343089      10.09280595      -5.36459223
H        8.49232811       8.45648280      -8.75345891
H        2.80573563       3.10529667      -7.97372669
H        4.17771538       2.08944349      -7.45428747
H        4.28974041       3.04651369      -8.94526584
C       10.39730882      10.16900045      -8.03983210
C       11.05459890      10.85432594      -8.78329340
Br      12.11738139      11.96243930      -9.98540745
C       -0.88181224      -0.88181224      -0.88181224
C       -1.16963028      -2.18614526      -0.48699135
C       -1.97605492      -2.99194806      -1.29363174
C       -2.51129765      -2.49540865      -2.49332348
C       -2.20649036      -1.18005070      -2.87667509
C       -1.39265709      -0.37616322      -2.07447895
C       -3.38850176      -3.36042930      -3.36964183
S       -4.95737499      -3.78069776      -2.55118497
C       -5.66619210      -4.81581680      -3.77927237
N       -5.38411452      -4.56220738      -5.01470116
N       -5.91134018      -5.33799521      -6.04100366
C       -6.70405341      -6.32779292      -5.77080277
N       -7.29657655      -7.17070120      -6.69499174
C       -6.92532826      -7.42877124      -8.02554976
C       -5.79004115      -6.88583688      -8.63923678
C       -5.48339767      -7.16186404      -9.97661383
C       -6.32371140      -7.97079327     -10.73441126
C       -7.47269057      -8.49255712     -10.15005561
C       -7.77679102      -8.22184194      -8.81325338
C       -7.05996130      -6.63297141      -4.31747326
O       -7.81334426      -7.58294014      -4.11728402
N       -6.49028280      -5.82780460      -3.36059800
C       -6.77115609      -6.12392850      -1.96312449
H       -0.77473902      -2.58390956       0.44387045
H       -2.19337732      -4.00932797      -0.97464872
H       -2.60173359      -0.77022935      -3.80452455
H       -1.16728341       0.63991502      -2.38857978
H       -2.84390397      -4.27793360      -3.61983697
H       -3.59943091      -2.83632279      -4.30842520
H       -7.92119103      -7.86358086      -6.28628812
H       -5.10250683      -6.24927886      -8.08906842
H       -4.58575254      -6.73854899     -10.42110512
H       -6.07916992      -8.17995039     -11.77170877
H       -8.68840314      -8.63063083      -8.38323585
H       -7.17828722      -5.23461143      -1.47186033
H       -5.83890740      -6.41366021      -1.46887874
H       -7.49078314      -6.94002363      -1.85071316
C       -8.35798588      -9.31733345     -10.93082203
C       -9.09942071     -10.00808362     -11.58471392
Br     -10.29825812     -11.12496823     -12.64200179
C       -0.88181224       0.88181224       0.88181224
C       -1.13342715       0.50923843       2.20010131
C       -1.93971139       1.31596509       3.00595823
C       -2.48879722       2.50715016       2.50408241
C       -2.22765103       2.86367171       1.17189341
C       -1.42821293       2.05262964       0.36245669
C       -3.35913346       3.38768885       3.37175057
S       -2.42534583       4.10713469       4.75677720
C       -3.71714738       4.97697405       5.56715983
N       -4.67144504       5.45264157       4.83693645
N       -5.72612312       6.15482084       5.40939509
C       -5.76246819       6.34941351       6.69076741
N       -6.74855446       7.03175517       7.38195986
C       -8.06561663       7.32483454       6.98919809
C       -8.63794905       6.88917735       5.78798840
C       -9.94951867       7.23215108       5.44020578
C      -10.70753077       8.04052344       6.28086172
C      -10.14387304       8.50859520       7.46283506
C       -8.83623911       8.16221508       7.81343214
C       -4.63583468       5.80711611       7.56745518
O       -4.72064672       6.01776839       8.77515330
N       -3.63540121       5.11494281       6.92834138
C       -2.57246508       4.54324963       7.74249437
H       -0.70735498      -0.40246248       2.60988564
H       -2.12932238       1.01401093       4.03402070
H       -2.64509747       3.77787714       0.75351288
H       -1.23782735       2.34523004      -0.66710921
H       -4.19314866       2.79071663       3.75780926
H       -3.78486790       4.19447287       2.76483814
H       -6.57555915       7.11318837       8.38231249
H       -8.08678183       6.25521045       5.09886182
H      -10.37226080       6.86525512       4.50789073
H      -11.72439898       8.30267583       6.00375427
H       -8.41347848       8.55217898       8.73661235
H       -1.60123749       4.89899659       7.38452490
H       -2.61021932       3.45293026       7.65829676
H       -2.67081275       4.81261885       8.79808834
C      -10.91442321       9.35987333       8.33184483
C      -11.55975898      10.07281876       9.05964052
Br     -12.60321233      11.22559122      10.23642459
C        0.88181224      -0.88181224       0.88181224
C        1.23646543      -2.15731004       0.44899142
C        2.04285694      -2.96312241       1.25565537
C        2.51135333      -2.49471497       2.49396148
C        2.13973712      -1.20840360       2.91507542
C        1.32585417      -0.40496576       2.11247933
C        3.38810471      -3.35971896       3.37074921
S        5.00279780      -3.68637456       2.60008537
C        5.70470363      -4.74173787       3.81483977
N        5.36546870      -4.54871197       5.04684239
N        5.88345296      -5.34405681       6.06282929
C        6.72487172      -6.29108613       5.78669125
N        7.31465735      -7.14686022       6.70075192
C        6.90317698      -7.47195334       8.00451894
C        5.72436899      -6.99798332       8.59276248
C        5.37784960      -7.33879661       9.90522932
C        6.22007930      -8.14447740      10.66435922
C        7.41058574      -8.59795532      10.10676224
C        7.75475616      -8.26256650       8.79456368
C        7.14825437      -6.52406011       4.33809149
O        7.94612259      -7.43562964       4.13181619
N        6.58404175      -5.70378602       3.39085763
C        6.92999769      -5.93283332       1.99537807
H        0.89383148      -2.53244290      -0.51149624
H        2.31274523      -3.95784612       0.90676265
H        2.48235652      -0.82109836       3.87303260
H        1.04816652       0.58834404       2.45612569
H        2.87138888      -4.30672935       3.56355632
H        3.54170741      -2.86582145       4.33665005
H        7.98169386      -7.79835193       6.29101423
H        5.03359439      -6.36683498       8.04042474
H        4.44759696      -6.96837338      10.32943631
H        5.94442236      -8.40414906      11.68225766
H        8.69781797      -8.61852762       8.38592423
H        7.31984492      -5.00961643       1.55529764
H        6.02974365      -6.23818577       1.45351692
H        7.68544141      -6.71553865       1.88053987
C        8.29747866      -9.41864854      10.89001416
C        9.04025148     -10.10597912      11.54598765
Br      10.24125232     -11.21733452      12.60664130
