153
Properties=species:S:1:pos:R:3 pbc="F F F"
C        0.00000000       0.00000000       0.00000000
C        0.88181224       0.88181224      -0.88181224
C        1.66803256       0.30080523      -1.87392909
C        2.47405387       1.10759630      -2.67998455
C        2.48953752       2.50145233      -2.50903994
C        1.69389770       3.06816225      -1.50115619
C        0.89387359       2.26080748      -0.68861819
C        3.35634583       3.38165418      -3.38057287
S        2.82158891       3.34904191      -5.11862692
C        4.05050502       4.38283803      -5.82793822
N        4.53178662       5.33310184      -5.09613461
N        5.50568638       6.19254210      -5.59211057
C        5.94120218       6.05577800      -6.80566892
N        6.90024506       6.84304769      -7.41897675
C        7.87362172       7.67129962      -6.83472791
C        8.07573199       7.78538053      -5.45400228
C        9.04738257       8.64523047      -4.92926249
C        9.82178697       9.42764938      -5.77947958
C        9.61248483       9.35070136      -7.15211711
Br      10.64295942      10.42512879      -8.31768768
C        8.64623571       8.48845846      -7.67719217
C        5.37327010       4.94756365      -7.68957223
O        5.82237308       4.86104303      -8.83015230
N        4.42217263       4.13317351      -7.12333925
C        3.89699981       3.03681138      -7.92439790
H        1.65999729      -0.77457278      -2.02935363
H        3.08412236       0.64189671      -3.45133494
H        1.69049592       4.14493191      -1.34105966
H        0.28494835       2.71819011       0.08719029
H        4.39509134       3.04036621      -3.30621700
H        3.32112175       4.41239202      -3.01066513
H        7.07674561       6.60174417      -8.39257024
H        7.49687927       7.19461243      -4.74936241
H        9.19220221       8.70029243      -3.85291201
H       10.57343089      10.09280595      -5.36459223
H        8.49232811       8.45648280      -8.75345891
H        2.80573563       3.10529667      -7.97372669
H        4.17771538       2.08944349      -7.45428747
H        4.28974041       3.04651369      -8.94526584
C       -0.88181224      -0.88181224      -0.88181224
C       -1.15416710      -2.19225053      -0.49634926
C       -1.96059936      -2.99805142      -1.30298394
C       -2.51127725      -2.49557295      -2.49317959
C       -2.22192956      -1.17405918      -2.86722741
C       -1.40811260      -0.37006536      -2.06512131
C       -3.38858373      -3.36060263      -3.36938652
S       -4.94602713      -3.80261275      -2.54061785
C       -5.65663700      -4.83299639      -3.77164787
N       -5.38818671      -4.56562511      -5.00721124
N       -5.91772524      -5.33686710      -6.03574671
C       -6.69892564      -6.33628609      -5.76743736
N       -7.29221330      -7.17616632      -6.69388988
C       -6.93083064      -7.41875356      -8.03006505
C       -5.80617594      -6.85991179      -8.64902707
C       -5.50929232      -7.12098398      -9.99159924
C       -6.34913558      -7.93066400     -10.74911634
C       -7.48794155      -8.46819636     -10.15916539
Br      -8.64979975      -9.55237944     -11.18359671
C       -7.78223945      -8.21240722      -8.81723966
C       -7.03873871      -6.65787347      -4.31379380
O       -7.78161386      -7.61647209      -4.11548246
N       -6.46765252      -5.85623697      -3.35479590
C       -6.73303041      -6.16757748      -1.95760119
H       -0.74718449      -2.59480880       0.42721515
H       -2.16576022      -4.02022772      -0.99136606
H       -2.62934588      -0.75947539      -3.78766621
H       -1.19484464       0.65083878      -2.37194231
H       -2.83800128      -4.27077909      -3.63289418
H       -3.61283755      -2.82995753      -4.30138382
H       -7.90675378      -7.87840960      -6.28589663
H       -5.11943633      -6.22210402      -8.09931375
H       -4.61962711      -6.68546018     -10.44031936
H       -6.11220936      -8.12816082     -11.79045890
H       -8.68613464      -8.63340263      -8.38273254
H       -7.14369621      -5.28651389      -1.45454888
H       -5.79370959      -6.45323635      -1.47450040
H       -7.44416948      -6.99120885      -1.84614160
C       -0.88181224       0.88181224       0.88181224
C       -1.17303303       0.48496084       2.18477302
C       -1.97929697       1.29169712       2.99064063
C       -2.48873475       2.50678737       2.50450766
C       -2.18802997       2.88769090       1.18749527
C       -1.38862348       2.07688592       0.37778986
C       -3.35877250       3.38738208       3.37241831
S       -2.44161104       4.05240935       4.79523734
C       -3.73177773       4.93358973       5.59591380
N       -4.65732527       5.44839596       4.85530183
N       -5.70874641       6.16189684       5.41969580
C       -5.77085283       6.32766879       6.70412748
N       -6.75698249       7.01698211       7.38830489
C       -8.05728313       7.35008168       6.97228445
C       -8.61097958       6.95590654       5.74822869
C       -9.90570177       7.33770539       5.37846837
C      -10.66450403       8.14414291       6.22026897
C      -10.11827499       8.57136385       7.42566446
Br     -11.13061589       9.68605132       8.56910868
C       -8.82763146       8.18618847       7.79806640
C       -4.67806143       5.73881732       7.59352722
O       -4.78649720       5.92348550       8.80358571
N       -3.67904965       5.03813684       6.96149891
C       -2.64912195       4.42285373       7.78623341
H       -0.77791584      -0.44576614       2.58262844
H       -2.20006124       0.97066024       4.00663252
H       -2.57426526       3.82091564       0.78130658
H       -1.16726538       2.38859054      -0.63990775
H       -4.21523100       2.80152905       3.72491449
H       -3.75131643       4.21779101       2.77507147
H       -6.60583534       7.07119643       8.39402825
H       -8.05846406       6.32516881       5.05722124
H      -10.31465516       7.00251401       4.42823747
H      -11.66822057       8.43657111       5.92603739
H       -8.41791136       8.54464560       8.73971285
H       -1.66175683       4.76372319       7.45927897
H       -2.71003026       3.33596433       7.67545175
H       -2.76613737       4.67003705       8.84534552
C        0.88181224      -0.88181224       0.88181224
C        1.23373773      -2.15856414       0.45046502
C        2.04013060      -2.96437608       1.25712804
C        2.51135208      -2.49474277       2.49393494
C        2.14246216      -1.20716889       2.91358509
C        1.32858059      -0.40371302       2.11100566
C        3.38812227      -3.35974672       3.37070389
S        5.00105845      -3.69021154       2.59798773
C        5.70321990      -4.74475568       3.81330568
N        5.36626268      -4.54922243       5.04553795
N        5.88460025      -5.34377198       6.06196682
C        6.72406454      -6.29258414       5.78600041
N        7.31394401      -7.14784016       6.70048533
C        6.90402951      -7.47019466       8.00542509
C        5.72692085      -6.99340343       8.59479052
C        5.38195599      -7.33156799       9.90835155
C        6.22411121      -8.13738146      10.66742325
C        7.41299998      -8.59365043      10.10865289
Br       8.57741239      -9.67143870      11.13692480
C        7.75560763      -8.26090615       8.79537256
C        7.14475940      -6.52854543       4.33710114
O        7.94084149      -7.44171682       4.13101010
N        6.58034324      -5.70888312       3.38945904
C        6.92370274      -5.94070926       1.99379709
H        0.88897117      -2.53468098      -0.50887400
H        2.30787352      -3.96008523       0.90939526
H        2.48722956      -0.81888372       3.87037422
H        1.05302769       0.59058633       2.45350680
H        2.87020488      -4.30562131       3.56584836
H        3.54405620      -2.86455481       4.33556790
H        7.97928453      -7.80104994       6.29072554
H        5.03627234      -6.36203406       8.04254771
H        4.45297467      -6.95898223      10.33344974
H        5.94966735      -8.39498783      11.68617390
H        8.69744604      -8.61902546       8.38579832
H        7.31431871      -5.01881989       1.55162038
H        6.02209784      -6.24548679       1.45386170
H        7.67771217      -6.72480309       1.87900468
