161
Properties=species:S:1:pos:R:3 pbc="F F F"
C        0.00000000       0.00000000       0.00000000
C        0.88179682       0.88179682      -0.88179682
C        0.54641499       1.07635042      -2.22029586
C        1.34833797       1.88878089      -3.02463530
C        2.48568572       2.51427020      -2.49260082
C        2.81613251       2.29786519      -1.14612784
C        2.01409110       1.48677960      -0.34130425
C        3.34042762       3.41359553      -3.34995580
S        4.61714614       2.48557372      -4.25622217
C        5.30139508       3.80614109      -5.18807106
N        5.18428107       4.99728362      -4.70272617
N        5.65145237       6.10238597      -5.39180872
C        6.26148922       5.95838755      -6.52661455
N        6.74491855       6.98446703      -7.32006988
C        6.62093822       8.37452103      -7.16187688
C        6.02882439       8.98938364      -6.05128198
C        5.92661915      10.38272023      -5.95436172
C        6.42261151      11.18478007      -6.97387126
C        7.01863203      10.60516642      -8.08787099
C        7.11673868       9.21097121      -8.17655458
C        6.48176514       4.55284962      -7.08403106
O        7.12715479       4.46003799      -8.12519037
N        5.92309177       3.51217449      -6.37647005
C        6.08271758       2.16486666      -6.89893293
H       -0.33535910       0.60427911      -2.64509740
H        1.07664380       2.03680190      -4.06752710
H        3.69784170       2.76803587      -0.71482285
H        2.27994381       1.33706951       0.70181477
H        3.80990099       4.17161931      -2.71246347
H        2.69989137       3.94503814      -4.06411386
H        7.19748356       6.67575055      -8.17643528
H        5.62868788       8.40867647      -5.22566074
H        5.45886991      10.82056934      -5.07535067
H        7.40956313      11.22325947      -8.89173607
H        7.58586942       8.78373635      -9.06061677
H        6.78638896       1.62111286      -6.26004188
H        6.46751486       2.16736485      -7.92257273
H        5.12044189       1.64498687      -6.89801504
C        6.31841027      12.61762013      -6.87532459
C        6.23114173      13.81762369      -6.79279176
Br       6.09003588      15.75792795      -6.65934314
C       -0.88179682      -0.88179682      -0.88179682
C       -2.18055344      -1.18483122      -0.47767661
C       -2.98948373      -1.98473051      -1.28753991
C       -2.50503007      -2.48034336      -2.50718331
C       -1.19075971      -2.17603816      -2.89332768
C       -0.38210735      -1.37540357      -2.08466403
C       -3.38319951      -3.32285358      -3.39792586
S       -3.30231359      -5.08936002      -2.96726841
C       -4.49447816      -5.69937041      -4.10175865
N       -4.69767944      -5.01105915      -5.17555226
N       -5.65233724      -5.39124803      -6.10206179
C       -6.33566001      -6.47961655      -5.93121476
N       -7.33382938      -6.94690912      -6.76871695
C       -7.90397772      -6.34888455      -7.90447386
C       -7.45986967      -5.14450644      -8.46511390
C       -8.07556393      -4.59269232      -9.59544485
C       -9.14959508      -5.24593013     -10.18573764
C       -9.61214940      -6.44450012      -9.65501992
C       -8.99048759      -6.98926183      -8.52451504
C       -6.05845482      -7.35225978      -4.70793122
O       -6.67823361      -8.40964730      -4.62450224
N       -5.14695014      -6.86826879      -3.79651740
C       -4.88701876      -7.65658223      -2.60291618
H       -2.57245014      -0.80257687       0.46100961
H       -4.00284758      -2.21335096      -0.96477426
H       -0.79260911      -2.55571068      -3.83238062
H        0.63048389      -1.14236493      -2.40331751
H       -3.07686565      -3.17694809      -4.44017003
H       -4.41973171      -2.97434460      -3.31496706
H       -7.75639876      -7.82228113      -6.47098951
H       -6.62246740      -4.59595672      -8.04460097
H       -7.70050815      -3.65494646      -9.99933530
H      -10.45221845      -6.96377092     -10.10856930
H       -9.37435813      -7.92734877      -8.12851564
H       -3.88763681      -8.09682342      -2.68308347
H       -5.61659555      -8.46175400      -2.47910288
H       -4.92913537      -7.01923558      -1.71507285
C       -9.78339816      -4.67975027     -11.34820657
C      -10.31420824      -4.20557463     -12.32177430
Br     -11.17248324      -3.43887274     -13.89595098
C       -0.88179682       0.88179682       0.88179682
C       -2.06290893       1.41292837       0.36722397
C       -2.87308689       2.21287294       1.17579433
C       -2.50838450       2.48051620       2.50365604
C       -1.30965093       1.94816484       3.00230978
C       -0.50000635       1.14738911       2.19477949
C       -3.39273671       3.32210692       3.38913532
S       -3.03416668       5.09898593       3.22578941
C       -4.29010692       5.72647161       4.27902869
N       -4.72649860       4.94644537       5.21134689
N       -5.74815547       5.34032488       6.05716672
C       -6.26071322       6.52702768       5.95875042
N       -7.30176673       7.02360901       6.72407972
C       -8.09618407       6.37646950       7.68468256
C       -7.88801137       5.06146786       8.12001078
C       -8.72068864       4.46682471       9.07618776
C       -9.77834290       5.18731060       9.61560934
C      -10.00958050       6.49551741       9.20657153
C       -9.17188854       7.08241161       8.24996431
C       -5.70773099       7.49611975       4.91479507
O       -6.17405709       8.63261086       4.90571520
N       -4.74341860       7.00451725       4.06380047
C       -4.22201731       7.88955272       3.03494714
H       -2.36240193       1.20883412      -0.65721866
H       -3.79457186       2.62052709       0.76587385
H       -1.00438602       2.14879398       4.02752041
H        0.42075504       0.73601256       2.59994102
H       -3.25717700       3.00672866       4.43007811
H       -4.44217623       3.13653736       3.13032979
H       -7.56659095       7.97992589       6.50315255
H       -7.07383982       4.45627508       7.73291019
H       -8.52524388       3.44284124       9.38670479
H      -10.83465798       7.06824694       9.62165376
H       -9.37706445       8.10700094       7.94615716
H       -3.19733928       8.17081907       3.29938535
H       -4.82164387       8.79881938       2.93698919
H       -4.21665163       7.37918470       2.06760747
C      -10.63512406       4.57714569      10.59908524
C      -11.35267829       4.06613259      11.42274630
Br     -12.51290278       3.23986762      12.75453657
C        0.88179682      -0.88179682       0.88179682
C        0.46651975      -1.20419625       2.17234528
C        1.26908907      -2.01675575       2.97590934
C        2.48741927      -2.51464792       2.49048955
C        2.89665903      -2.17025591       1.19321060
C        2.09411219      -1.35900435       0.38905841
C        3.34545736      -3.41392345       3.34459814
S        4.47665771      -2.46950453       4.41277979
C        5.19270826      -3.80580305       5.29709592
N        5.20456545      -4.96070081       4.71902461
N        5.70552640      -6.07951675       5.36060392
C        6.21857554      -5.98084282       6.54707296
N        6.72195862      -7.02806782       7.29942902
C        6.71882714      -8.40681823       7.03169076
C        6.25865674      -8.97426655       5.83656672
C        6.27299172     -10.35949291       5.63121647
C        6.75496724     -11.20073762       6.62555799
C        7.22153107     -10.66832040       7.82181797
C        7.20365074      -9.28189343       8.01872029
C        6.28730674      -4.61092880       7.22041028
O        6.84629674      -4.55326609       8.31282033
N        5.70174156      -3.56136049       6.54863427
C        5.71725430      -2.25100803       7.17825483
H       -0.47792651      -0.83193963       2.56000428
H        0.93492491      -2.26516065       3.98088724
H        3.84136353      -2.54011899       0.79921789
H        2.42235258      -1.10932564      -0.61647968
H        3.91772504      -4.08375879       2.69249993
H        2.69835688      -4.04459836       3.96608813
H        7.08573746      -6.75525965       8.20867228
H        5.87524299      -8.36132357       5.02645854
H        5.90585234     -10.76002787       4.68890970
H        7.60029169     -11.31740249       8.60686450
H        7.57262747      -8.89220700       8.96538807
H        6.42071209      -1.60940041       6.63743121
H        6.02585839      -2.30563051       8.22596354
H        4.71988452      -1.80376706       7.13979222
C        6.77052390     -12.62525984       6.41557126
C        6.78355260     -13.81829720       6.23970737
Br       6.80461891     -15.74733771       5.95535034
