78
Properties=species:S:1:pos:R:3 pbc="F F F"
Cl       4.09045457       7.21025883      -3.67715716
C        3.63425304       5.60788473      -3.37278729
N        2.73420151       5.35854725      -2.38646639
H        2.29716619       6.05317477      -1.79945946
C        2.54235721       3.99924010      -2.34932650
C        1.74121611       3.18067653      -1.55045514
C        1.79910122       1.79910122      -1.79910122
C        2.62689054       1.27851303      -2.80557855
Br       2.74325579      -0.58230840      -3.18393565
C        3.42086848       2.12823498      -3.59219573
C        3.37314634       3.50882635      -3.35518522
N        4.04640389       4.52844519      -3.98259547
H        1.10479119       3.59466456      -0.77481217
H        4.06705004       1.74486313      -4.37481596
Cl      -4.08428520      -3.68261452      -7.21097085
C       -3.63034228      -3.37624671      -5.60833607
N       -2.72893921      -2.39112137      -5.35915458
H       -2.28961275      -1.80614116      -6.05404651
C       -2.53944716      -2.35190070      -3.99957595
C       -1.73830277      -1.55303225      -3.18101276
C       -1.79910122      -1.79910122      -1.79910122
C       -2.62961715      -2.80316662      -1.27819835
Br      -2.74995453      -3.17801002       0.58308151
C       -3.42350845      -3.58986044      -2.12793030
C       -3.37289099      -3.35541110      -3.50885582
N       -4.04550013      -3.98339493      -4.52854949
H       -1.09973748      -0.77928263      -3.59524781
H       -4.07177337      -4.37063775      -1.74431801
Cl      -5.02752002       3.04379749       6.90655306
C       -4.22704675       2.97211984       5.41575847
N       -3.52238701       1.85373423       5.10309393
H       -3.42521150       1.03701709       5.68757184
C       -2.97992149       2.05357814       3.85742418
C       -2.17351421       1.25826617       3.04056739
C       -1.79910122       1.79910122       1.79910122
C       -2.22194432       3.07928046       1.40975734
Br      -1.74449582       3.85899446      -0.25860724
C       -3.03268628       3.85456689       2.25404602
C       -3.41391061       3.32763278       3.49561452
N       -4.19123343       3.88470563       4.48150549
H       -1.85253616       0.26941363       3.35231813
H       -3.36967250       4.84617131       1.97088532
Cl       3.91507386      -7.22264006       3.84015664
C        3.52330435      -5.61571766       3.47590305
N        2.58666932      -5.36896585       2.52357999
H        2.08601444      -6.06808714       1.99569884
C        2.46045658      -4.00502333       2.42544390
C        1.66029290      -3.18639251       1.62566237
C        1.79910122      -1.79910122       1.79910122
C        2.70269315      -1.27315885       2.73513011
Br       2.93020980       0.59551234       3.01018558
C        3.49353866      -2.12310085       3.52465967
C        3.36551973      -3.50936416       3.36227402
N        4.01930841      -4.53035573       4.00778041
H        0.96481539      -3.60455236       0.90490018
H        4.19759937      -1.73564075       4.25348901
C       -0.00445707       0.01189536      -1.78238275
H       -0.66409135       0.67374010      -2.43557963
H        0.65740317      -0.63156657      -2.45157240
C       -0.90989263      -0.90692880      -0.91072765
C        0.90977584       0.90977584      -0.90977584
C       -0.00465871       1.77757030       0.00794375
H       -0.66225468       2.44313916      -0.64384735
H        0.64322798       2.43503045       0.67728295
C       -1.78241447       0.00034974      -0.00472694
H       -2.45427497      -0.65498947       0.64260836
H       -2.43311707       0.67328779      -0.65473579
C       -0.91132561       0.90220522       0.91563759
C       -0.01476271      -0.02253852       1.78660255
H       -0.67934791      -0.69751639       2.42135241
H        0.63392994       0.61504881       2.47327442
C        0.01484550      -1.77751727      -0.01636693
H        0.67870853      -2.42144646      -0.68295456
H       -0.62264859      -2.45592969       0.64226336
C        1.78714474       0.01002794       0.00389507
H        2.44202412       0.67113390       0.66197326
H        2.45385902      -0.65136977      -0.64189061
C        0.91606151      -0.90478549       0.90901405
