162
Properties=species:S:1:pos:R:3 pbc="F F F"
C        1.79182784       1.79182784      -1.79182784
C        1.56228269       1.84541240      -3.16461491
C        2.36617282       2.65619808      -3.96913277
C        3.39559056       3.42479251      -3.40443486
C        3.62331585       3.34756725      -2.02372554
C        2.82039727       2.53542928      -1.21749900
C        4.25668497       4.29473850      -4.28201742
N        5.37862715       3.56215852      -4.80112073
C        6.02734756       3.93884404      -5.95458388
O        5.64163361       4.84350556      -6.68846565
C        7.24010823       3.15227976      -6.22917361
N        7.69930725       2.21443869      -5.37648801
N        8.79723967       1.73409223      -5.98645975
H        9.33018474       1.01500005      -5.51033274
C        9.07016253       2.30243778      -7.20464527
C        8.07714303       3.24843682      -7.37070072
C       10.20047769       1.92316935      -8.05088782
C       10.70746891       0.61446749      -8.04475936
C       11.78215200       0.25837688      -8.86760936
C       12.35749812       1.21015024      -9.70449278
Br      13.80394030       0.72779656     -10.82038748
C       11.86873517       2.51336780      -9.72750264
C       10.79354500       2.86559581      -8.90454964
H        0.76423876       1.26361168      -3.61772854
H        2.18496881       2.68869446      -5.04188517
H        4.42529282       3.92311793      -1.56527040
H        3.00492264       2.49195058      -0.14732790
H        4.64596077       5.14767180      -3.71412556
H        3.66422751       4.70992470      -5.10557497
H        5.85393006       2.86668304      -4.23434945
H        7.94000953       3.91502907      -8.21169445
H       10.26135605      -0.15712451      -7.42234175
H       12.15331475      -0.76250992      -8.85272849
H       12.31196917       3.26126888     -10.37963446
H       10.42951409       3.89109100      -8.93508536
C       -1.79182784      -1.79182784      -1.79182784
C       -1.50290940      -1.92113948      -3.14826113
C       -2.30709952      -2.73194008      -3.95246406
C       -3.39657968      -3.42515049      -3.40308776
C       -3.68291612      -3.27195479      -2.03973773
C       -2.87970871      -2.45967923      -1.23393761
C       -4.25734606      -4.29586282      -4.28023201
N       -5.31834390      -3.53858768      -4.88497482
C       -5.93115129      -3.93991191      -6.04971228
O       -5.55600491      -4.89511394      -6.72248597
C       -7.09131715      -3.11299024      -6.41725420
N       -7.54361060      -2.11567881      -5.63094455
N       -8.58853622      -1.61551067      -6.31374476
H       -9.10771447      -0.85106054      -5.89674251
C       -8.83255037      -2.22825105      -7.51644415
C       -7.87920727      -3.22526321      -7.59181009
C       -9.90386026      -1.83872588      -8.43194871
C      -10.34767733      -0.50951915      -8.50949928
C      -11.36564397      -0.14453670      -9.39795756
C      -11.94703179      -1.10795348     -10.21715587
Br     -13.31660903      -0.61403901     -11.42147631
C      -11.52037447      -2.43166323     -10.15756791
C      -10.50172251      -2.79280961      -9.26915833
H       -0.65827438      -1.39847962      -3.58882498
H       -2.07905600      -2.82371620      -5.01277624
H       -4.53142076      -3.78794483      -1.59431556
H       -3.11042576      -2.35691659      -0.17685876
H       -4.71223767      -5.10218594      -3.69333451
H       -3.64850658      -4.77632607      -5.05489453
H       -5.78525222      -2.79600546      -4.37370487
H       -7.73588830      -3.93671246      -8.39413229
H       -9.89407439       0.26976606      -7.90226496
H      -11.68803820       0.89172037      -9.44721548
H      -11.96862488      -3.18885557     -10.79539206
H      -10.18595233      -3.83408662      -9.23565150
C       -1.79182784       1.79182784       1.79182784
C       -2.54294841       2.81361685       1.21574474
C       -3.35287886       3.61597277       2.02265204
C       -3.42404543       3.39425035       3.40652215
C       -2.65007775       2.37206512       3.97246577
C       -1.83793598       1.56913973       3.16624983
C       -4.30018143       4.26644925       4.26681021
N       -3.59591579       5.43918549       4.70680512
C       -4.25241083       6.58986596       5.07849870
O       -5.46273771       6.75249574       4.95837137
C       -3.36241186       7.61707153       5.64207821
N       -2.04728730       7.39944855       5.84349810
N       -1.60269327       8.56151850       6.35357988
H       -0.62292101       8.62682048       6.60577604
C       -2.56117956       9.53432843       6.48173759
C       -3.72330165       8.92901959       6.04395934
C       -2.30098746      10.87825877       6.99528862
C       -1.05583541      11.49925419       6.81160616
C       -0.82069487      12.79091384       7.29652953
C       -1.83139751      13.47197526       7.96876836
Br      -1.51625023      15.21837481       8.61749931
C       -3.07438348      12.87516075       8.16006138
C       -3.30640731      11.58433213       7.67295101
H       -2.50661255       2.99410134       0.14486510
H       -3.93256372       4.41638923       1.56659549
H       -2.67754729       2.19082025       5.04531360
H       -1.24930402       0.77569567       3.61920142
H       -4.63118360       3.71941457       5.15715995
H       -5.20581054       4.55381442       3.72010222
H       -2.61090782       5.39508598       4.94896876
H       -4.71076116       9.36750106       5.98847083
H       -0.25644882      11.00327966       6.26684481
H        0.14805260      13.25561116       7.13597475
H       -3.86868733      13.40163830       8.68254688
H       -4.28414368      11.13462499       7.83692179
C        1.79182784      -1.79182784       1.79182784
C        2.32895563      -2.96843547       1.27491890
C        3.13938202      -3.77128080       2.08084084
C        3.42522615      -3.39685159       3.40274020
C        2.86429369      -2.21794726       3.91236768
C        2.05185582      -1.41415657       3.10731316
C        4.29966758      -4.27101885       4.26275445
N        3.52653767      -5.27504105       4.94032768
C        4.08475599      -6.45166224       5.38435725
O        5.23892236      -6.79151307       5.14316939
C        3.16336601      -7.27234726       6.18584832
N        1.92387086      -6.85433055       6.51203254
N        1.41694200      -7.87496083       7.22588883
H        0.48017702      -7.77490930       7.60043121
C        2.26015965      -8.94721696       7.36986896
C        3.41568184      -8.56349468       6.71710405
C        1.91319496     -10.17147199       8.08986790
C        0.58915995     -10.63387410       8.14366172
C        0.26918902     -11.81359392       8.82535529
C        1.27318129     -12.54079360       9.45816625
Br       0.84234651     -14.13705370      10.37272415
C        2.59322410     -12.10095877       9.41542275
C        2.90973150     -10.92189243       8.73206651
H        2.12511352      -3.26950228       0.25096318
H        3.55092729      -4.69235807       1.67226308
H        3.05977796      -1.91468399       4.93921920
H        1.63025115      -0.49908452       3.51486544
H        4.81257457      -3.67149173       5.02369183
H        5.08091274      -4.74306770       3.65574675
H        2.59638667      -5.06790312       5.29067277
H        4.32642398      -9.13635366       6.60395541
H       -0.21183239     -10.10226451       7.63614117
H       -0.76112924     -12.15732981       8.84733274
H        3.38251024     -12.66454133       9.90582093
H        3.94755607     -10.59371558       8.71441880
C       -0.00445707       0.01189536      -1.78238275
H       -0.66409135       0.67374010      -2.43557963
H        0.65740317      -0.63156657      -2.45157240
C       -0.90989263      -0.90692880      -0.91072765
C        0.90977584       0.90977584      -0.90977584
C       -0.00465871       1.77757030       0.00794375
H       -0.66225468       2.44313916      -0.64384735
H        0.64322798       2.43503045       0.67728295
C       -1.78241447       0.00034974      -0.00472694
H       -2.45427497      -0.65498947       0.64260836
H       -2.43311707       0.67328779      -0.65473579
C       -0.91132561       0.90220522       0.91563759
C       -0.01476271      -0.02253852       1.78660255
H       -0.67934791      -0.69751639       2.42135241
H        0.63392994       0.61504881       2.47327442
C        0.01484550      -1.77751727      -0.01636693
H        0.67870853      -2.42144646      -0.68295456
H       -0.62264859      -2.45592969       0.64226336
C        1.78714474       0.01002794       0.00389507
H        2.44202412       0.67113390       0.66197326
H        2.45385902      -0.65136977      -0.64189061
C        0.91606151      -0.90478549       0.90901405
