149
Properties=species:S:1:pos:R:3 pbc="F F F"
C        0.00000000       0.00000000       0.00000000
C        0.88139925       0.88139925      -0.88139925
C        1.17653932       0.48218527      -2.18464415
C        1.97857282       1.28869722      -3.00197993
C        2.48301180       2.49679619      -2.51860643
N        3.28420392       3.37495204      -3.27008901
C        3.67765778       3.27020519      -4.58963398
O        3.31616688       2.39513333      -5.37476160
C        4.52803139       4.44881632      -5.07510573
N        5.12416979       5.22989355      -3.98851462
N        4.27465005       6.07631350      -3.30298723
C        4.76815853       6.78954387      -2.33565297
C        6.19533504       6.77002423      -1.94762752
C        6.98696686       5.91307485      -2.59253347
C        6.45932561       5.04278960      -3.66222587
O        7.21278292       4.23935447      -4.20238246
C        3.86272127       7.69523788      -1.57225486
C        4.05464100       7.95444854      -0.20828945
C        3.17722209       8.79971998       0.47595532
C        2.10028081       9.38022895      -0.19382702
C        1.89927527       9.10725062      -1.54570650
Br       0.43005283       9.88347487      -2.44716906
C        2.77004903       8.26667297      -2.23783842
C        2.17992385       2.86968297      -1.20161276
F        2.66700104       4.02166565      -0.71054617
C        1.38445148       2.07674919      -0.37998450
H        0.78884791      -0.45339415      -2.58110214
H        2.18984028       0.94504731      -4.01034164
H        3.57479157       4.23792969      -2.80676999
H        3.89265593       5.11586445      -5.66686206
H        5.31646155       4.04981027      -5.72089433
H        6.58244436       7.44005737      -1.19272452
H        8.04539478       5.82834640      -2.38293270
H        4.86193211       7.48807446       0.34953459
H        3.32620283       8.99770385       1.53536679
H        1.42015911      10.03382623       0.34739732
H        2.60150973       8.05878676      -3.29230581
H        1.16915755       2.40327216       0.63167110
C       -0.88139925      -0.88139925      -0.88139925
C       -0.79657953      -2.26952337      -0.77726584
C       -1.60695698      -3.08499519      -1.57729779
C       -2.50558443      -2.51356393      -2.47926605
N       -3.36565788      -3.25189301      -3.31169408
C       -3.54129530      -4.62009600      -3.37610565
O       -3.00714050      -5.44379501      -2.63512630
C       -4.60146245      -5.05870197      -4.39178902
N       -4.91656521      -4.03489141      -5.39112134
N       -5.70491180      -2.98348103      -4.96555794
C       -6.01003915      -2.05822924      -5.82508698
C       -5.58725504      -2.08346652      -7.24226523
C       -4.79018640      -3.08327229      -7.61911649
C       -4.37231671      -4.12844282      -6.66358155
O       -3.60523250      -5.00827320      -7.04101415
C       -6.84477128      -0.90609467      -5.37934807
C       -6.67939431       0.37805423      -5.91603891
C       -7.47286450       1.43555894      -5.46368119
C       -8.42540473       1.21914250      -4.46807455
C       -8.57648583      -0.05408434      -3.92166221
Br      -9.85788371      -0.34108579      -2.56172726
C       -7.79095261      -1.11621869      -4.36738911
C       -2.56361880      -1.11589914      -2.57170164
F       -3.41108312      -0.54432566      -3.44380407
C       -1.76346232      -0.29531726      -1.78240558
H       -0.10602038      -2.73363899      -0.07689653
H       -1.51225049      -4.16170844      -1.47127030
H       -3.99030989      -2.71394734      -3.91523400
H       -5.52154228      -5.30298511      -3.85085504
H       -4.23559810      -5.96234843      -4.88921962
H       -5.93154267      -1.33812946      -7.94555412
H       -4.43175640      -3.19018342      -8.63473404
H       -5.92095800       0.58611040      -6.66562439
H       -7.34128533       2.43229613      -5.87955069
H       -9.03601609       2.04870372      -4.11927565
H       -7.91599641      -2.10510255      -3.93150333
H       -1.84203086       0.78198427      -1.88071203
C       -0.88139925       0.88139925       0.88139925
C       -2.18782054       1.16868380       0.48686441
C       -3.00513536       1.97066754       1.29344706
C       -2.51854219       2.48291165       2.49696058
N       -3.26967137       3.28468880       3.37488480
C       -4.59149109       3.67157243       3.27443344
O       -5.37895958       3.30242448       2.40467775
C       -5.07545890       4.52514530       4.45134924
N       -3.98805190       5.12988926       5.22463680
N       -3.29471031       4.28746108       6.07177937
C       -2.32639525       4.78871415       6.77824597
C       -1.94507129       6.21755699       6.75035851
C       -2.59757296       7.00223684       5.89276539
C       -3.66880938       6.46565365       5.02987805
O       -4.21614083       7.21288983       4.22548919
C       -1.55465289       3.89100253       7.68455859
C       -0.19041073       4.09039929       7.93656898
C        0.50177207       3.22006132       8.78269750
C       -0.16033961       2.14274421       9.37125296
C       -1.51251747       1.93425380       9.10546111
Br      -2.40358804       0.46450242       9.89260630
C       -2.21253488       2.79793215       8.26409339
C       -1.19845690       2.18762090       2.86514178
F       -0.70434891       2.68227938       4.01258457
C       -0.37681750       1.39228074       2.07208693
H       -2.58678513       0.77484597      -0.44507520
H       -4.01603578       2.17569644       0.95349701
H       -2.80373225       3.58139695       4.23436204
H       -5.66119072       3.89014436       5.12404735
H       -5.72671932       5.30873832       4.05170851
H       -1.18888960       6.61123493       7.41510171
H       -2.39326405       8.06121549       5.80219432
H        0.36151832       4.89808444       7.46390587
H        1.56138347       3.37483409       8.97508928
H        0.38703017       1.46815373      10.02546447
H       -3.26715742       2.62357820       8.06186667
H        0.63731648       1.18316138       2.39491371
C        0.88139925      -0.88139925       0.88139925
C        0.30209310      -1.65265343       1.88862222
C        1.10306190      -2.46934147       2.69684660
C        2.48327240      -2.51876497       2.49637705
N        3.36231591      -3.31761035       3.24931870
C        3.06600093      -4.21751759       4.25397843
O        1.93442735      -4.53414660       4.61748786
C        4.29541327      -4.93358682       4.82295336
N        5.55932250      -4.25325039       4.53000507
N        6.03805416      -4.37579720       3.24009941
C        7.15938083      -3.79041147       2.94356307
C        7.96865973      -3.02647292       3.91785414
C        7.46522989      -2.88349647       5.14384883
C        6.16787344      -3.48491383       5.51155382
O        5.72127686      -3.29498830       6.63825469
C        7.68258798      -3.89616411       1.55146192
C        8.40763534      -2.85653991       0.95320373
C        8.87124101      -2.98814020      -0.35839446
C        8.60458204      -4.15087759      -1.08112285
C        7.86756537      -5.17666160      -0.49199459
Br       7.49476023      -6.74515642      -1.47921988
C        7.40206373      -5.05583773       0.81665896
C        3.04147334      -1.72575744       1.48398880
F        4.36984433      -1.74651249       1.28285603
C        2.25610743      -0.91027769       0.67480005
H       -0.77211320      -1.63145331       2.05721580
H        0.61811964      -3.05414699       3.47296260
H        4.35003737      -3.27840972       2.99104415
H        4.34147999      -5.93991514       4.39398730
H        4.16240385      -5.01879514       5.90596716
H        8.93692755      -2.62513189       3.65316681
H        7.98426404      -2.34574232       5.92666750
H        8.59929182      -1.92417949       1.47700067
H        9.43163081      -2.17901949      -0.82211040
H        8.96596870      -4.24328030      -2.10266098
H        6.82547132      -5.86205604       1.26507493
H        2.72614821      -0.31556221      -0.10095180
