170
Properties=species:S:1:pos:R:3 pbc="F F F"
C        1.79169378       1.79169378      -1.79169378
C        2.71035718       2.66250185      -1.20645354
C        3.51587377       3.46865583      -2.01704992
C        3.40706595       3.39671032      -3.41137308
C        2.46102496       2.54306171      -3.98289968
C        1.66133471       1.72913259      -3.17699694
C        4.25286501       4.29469203      -4.24316615
O        4.37641602       5.46330552      -3.86684289
C        4.88758026       3.81659823      -5.55212552
N        4.94158697       2.37508024      -5.75407078
N        4.16670484       1.85215372      -6.77226718
C        4.17157336       0.56595124      -6.94998359
C        4.96480365      -0.36237026      -6.10214987
C        5.78884527       0.17377658      -5.20224295
C        5.84354334       1.63332904      -5.00742909
O        6.61593343       2.09905063      -4.17425190
C        3.36094277      -0.05817082      -8.04984926
C        3.90465643      -1.16734408      -8.72959620
C        3.19771572      -1.81256315      -9.74824398
C        1.94532664      -1.34676249     -10.12627967
C        1.40307767      -0.23351951      -9.48920786
C        2.09970811       0.41397708      -8.45583255
H        2.80210030       2.72828732      -0.12585138
H        4.22487193       4.15610626      -1.56014438
H        2.32130967       2.51774982      -5.05632205
H        0.93460262       1.06653286      -3.63987219
H        5.91590814       4.19607725      -5.57537737
H        4.32823755       4.27135534      -6.37765466
H        4.87803214      -1.43464178      -6.21232664
H        6.41841266      -0.42295080      -4.55509245
H        4.89795771      -1.54193409      -8.49343326
H        3.63020755      -2.67501885     -10.25060211
H        1.39215354      -1.84220135     -10.92077023
H        0.42450259       0.12515558      -9.80439241
C        1.40453559       1.52661638      -7.86222583
C        0.82232860       2.45845180      -7.36508020
Br      -0.11905086       3.96515085      -6.56123776
C       -1.79169378      -1.79169378      -1.79169378
C       -1.99388101      -1.45550926      -3.12992230
C       -2.80221906      -2.26512487      -3.93423559
C       -3.40026496      -3.41373719      -3.40114721
C       -3.21442003      -3.72101050      -2.05155581
C       -2.39992316      -2.92025472      -1.24728635
C       -4.28379533      -4.23241440      -4.27451347
O       -5.06436831      -3.62770241      -5.01449371
C       -4.28271925      -5.76238248      -4.21120229
N       -3.14141980      -6.37983051      -3.54948769
N       -3.38522097      -7.04392036      -2.36198440
C       -2.37848466      -7.57328276      -1.73574077
C       -0.98143447      -7.48681683      -2.23633195
C       -0.78754824      -6.94075386      -3.43656270
C       -1.91538789      -6.37290310      -4.19601048
O       -1.70723008      -5.88057614      -5.30142975
C       -2.58410461      -8.31988753      -0.44862907
C       -1.79438926      -9.46315042      -0.20936887
C       -1.91528539     -10.19403216       0.97592101
C       -2.84555713      -9.81334874       1.93406205
C       -3.65746178      -8.70555687       1.70425263
C       -3.53489020      -7.95694603       0.52231848
H       -1.53667997      -0.56572669      -3.55383235
H       -2.96888972      -1.99673887      -4.97549396
H       -3.71661168      -4.57129832      -1.60747155
H       -2.26210463      -3.17841655      -0.20048648
H       -4.31175119      -6.13300159      -5.24260998
H       -5.20158653      -6.07406806      -3.70159295
H       -0.15171113      -7.85525259      -1.64875330
H        0.19150685      -6.85277985      -3.88928130
H       -1.08084282      -9.82030824      -0.94830582
H       -1.28660495     -11.06526652       1.14608066
H       -2.94695559     -10.38030236       2.85653554
H       -4.38878654      -8.42635971       2.46109566
C       -4.41067668      -6.81725509       0.43455396
C       -5.14414785      -5.86276392       0.36105118
Br      -6.33010871      -4.31943244       0.24220339
C       -1.79169378       1.79169378       1.79169378
C       -2.98253904       2.31149165       1.28528187
C       -3.78724801       3.11880916       2.09552234
C       -3.40382194       3.39820266       3.41312474
C       -2.19348473       2.89670622       3.89679540
C       -1.39162089       2.08197889       3.09386445
C       -4.26451702       4.29047243       4.23573374
O       -4.72773369       5.29316650       3.68566424
C       -4.51079322       4.02239816       5.72311264
N       -4.18565622       2.68504815       6.20003362
N       -3.13203340       2.57157808       7.08751425
C       -2.80108522       1.38590368       7.50051929
C       -3.49923434       0.15204748       7.05330143
C       -4.58054732       0.29664314       6.28767434
C       -5.01223505       1.63237923       5.83968719
O       -6.01517715       1.73522607       5.13883275
C       -1.67421372       1.20185473       8.47655277
C       -1.80406662       0.20135777       9.46148417
C       -0.78642274      -0.04142621      10.38840001
C        0.36966979       0.72756630      10.36694731
C        0.50521256       1.74169141       9.42228716
C       -0.50591009       1.98513109       8.47847657
H       -3.28912260       2.10312572       0.26399068
H       -4.71090844       3.53341646       1.69679766
H       -1.85201519       3.15102136       4.89234500
H       -0.45576153       1.69581299       3.48943315
H       -5.57613590       4.19592734       5.91529952
H       -3.92864919       4.75535563       6.29324273
H       -3.14387568      -0.82821963       7.34006096
H       -5.16269400      -0.54303192       5.93089223
H       -2.70778419      -0.39850838       9.54018107
H       -0.90159502      -0.82736184      11.13155762
H        1.16325983       0.54598198      11.08800027
H        1.41351777       2.34216646       9.42540189
C       -0.21620920       3.03770907       7.53945953
C        0.02641529       3.91924312       6.75303276
Br       0.41871857       5.34460914       5.48144719
C        1.79169378      -1.79169378       1.79169378
C        2.01039692      -1.44443062       3.12448503
C        2.81868263      -2.25408554       3.92881135
C        3.40014169      -3.41372724       3.40128043
C        3.19795010      -3.73235503       2.05668121
C        2.38341980      -2.93149771       1.25254672
C        4.28420691      -4.23251032       4.27400596
O        5.07795114      -3.62833038       5.00028291
C        4.26751399      -5.76293973       4.22585031
N        3.11372790      -6.37551830       3.58149179
N        3.33924855      -7.05359120       2.39828599
C        2.32122660      -7.57907663       1.78720496
C        0.93011233      -7.47389070       2.30058022
C        0.75347132      -6.91420243       3.49719105
C        1.89428000      -6.35012555       4.23989591
O        1.70190414      -5.84495583       5.34237600
C        2.50677562      -8.34025461       0.50559098
C        1.70356780      -9.47793676       0.28540399
C        1.80556279     -10.22155726      -0.89372352
C        2.72999356      -9.85950346      -1.86465320
C        3.55494748      -8.75760104      -1.65378250
C        3.45141770      -7.99626946      -0.47816941
H        1.56615276      -0.54605694       3.54402931
H        2.99826987      -1.97717259       4.96568010
H        3.68736785      -4.59188063       1.61613306
H        2.23272723      -3.19852726       0.20975317
H        4.30311746      -6.12370453       5.26054077
H        5.17819578      -6.08868028       3.71037149
H        0.09104552      -7.83983777       1.72483372
H       -0.22014729      -6.81211363       3.95858797
H        0.99390283      -9.82075946       1.03479459
H        1.16672332     -11.08815364      -1.04908616
H        2.81669946     -10.43644376      -2.78242080
H        4.28144801      -8.49308280      -2.42048022
C        4.33915427      -6.86449491      -0.41027138
C        5.08263366      -5.91663373      -0.35340679
Br       6.28477694      -4.38402236      -0.26146154
C       -0.00445707       0.01189536      -1.78238275
H       -0.66409135       0.67374010      -2.43557963
H        0.65740317      -0.63156657      -2.45157240
C       -0.90989263      -0.90692880      -0.91072765
C        0.90977584       0.90977584      -0.90977584
C       -0.00465871       1.77757030       0.00794375
H       -0.66225468       2.44313916      -0.64384735
H        0.64322798       2.43503045       0.67728295
C       -1.78241447       0.00034974      -0.00472694
H       -2.45427497      -0.65498947       0.64260836
H       -2.43311707       0.67328779      -0.65473579
C       -0.91132561       0.90220522       0.91563759
C       -0.01476271      -0.02253852       1.78660255
H       -0.67934791      -0.69751639       2.42135241
H        0.63392994       0.61504881       2.47327442
C        0.01484550      -1.77751727      -0.01636693
H        0.67870853      -2.42144646      -0.68295456
H       -0.62264859      -2.45592969       0.64226336
C        1.78714474       0.01002794       0.00389507
H        2.44202412       0.67113390       0.66197326
H        2.45385902      -0.65136977      -0.64189061
C        0.91606151      -0.90478549       0.90901405
