141
Properties=species:S:1:pos:R:3 pbc="F F F"
C        0.00000000       0.00000000       0.00000000
C        0.88178976       0.88178976      -0.88178976
C        1.80045315       1.75259783      -0.29654951
C        2.60596975       2.55875180      -1.10714590
C        2.49716192       2.48680630      -2.50146906
C        1.55112094       1.63315768      -3.07299565
C        0.75143068       0.81922856      -2.26709291
C        3.34296099       3.38478801      -3.33326212
O        3.46651200       4.55340149      -2.95693887
C        3.97767624       2.90669421      -4.64222150
N        4.03168295       1.46517622      -4.84416676
N        3.25680082       0.94224969      -5.86236315
C        3.26166934      -0.34395279      -6.04007957
C        4.05489962      -1.27227429      -5.19224585
C        4.87894124      -0.73612744      -4.29233893
C        4.93363932       0.72342501      -4.09752506
O        5.70602941       1.18914661      -3.26434788
C        2.45103875      -0.96807484      -7.13994523
C        2.99475240      -2.07724811      -7.81969218
C        2.28781169      -2.72246718      -8.83833995
C        1.03542262      -2.25666652      -9.21637565
C        0.49317365      -1.14342354      -8.57930383
C        1.18980409      -0.49592695      -7.54592853
Br       0.27293200       0.97154752      -6.76301289
H        1.89219628       1.81838330       0.78405264
H        3.31496791       3.24620223      -0.65024035
H        1.41140564       1.60784580      -4.14641803
H        0.02469859       0.15662883      -2.72996817
H        5.00600412       3.28617322      -4.66547335
H        3.41833352       3.36145132      -5.46775063
H        3.96812812      -2.34454580      -5.30242262
H        5.50850863      -1.33285482      -3.64518843
H        3.98805369      -2.45183811      -7.58352924
H        2.72030352      -3.58492288      -9.34069808
H        0.48224952      -2.75210538     -10.01086620
H       -0.48540144      -0.78474845      -8.89448839
C       -0.88178976      -0.88178976      -0.88178976
C       -1.59975861      -0.31527582      -1.93456606
C       -2.40642431      -1.12576498      -2.73967815
C       -2.48734382      -2.50238516      -2.49570830
C       -1.78750361      -3.05093938      -1.41883128
C       -0.97307667      -2.24641168      -0.61826381
C       -3.38340158      -3.32948871      -3.34812083
O       -4.49112289      -2.86133499      -3.62439448
C       -2.98461798      -4.73488127      -3.80709269
N       -1.57240333      -5.07363597      -3.69498662
N       -1.22985072      -6.05149278      -2.78007016
C        0.02645393      -6.34688610      -2.63736395
C        1.10567714      -5.67376632      -3.40678200
C        0.74251590      -4.81686299      -4.36080564
C       -0.67824210      -4.49458550      -4.58176180
O       -0.98322336      -3.70502106      -5.47127947
C        0.45761111      -7.41134405      -1.66917619
C        1.53719789      -8.24255709      -2.03183727
C        2.00711307      -9.23908861      -1.17170893
C        1.39146320      -9.44282227       0.05622733
C        0.30363086      -8.65365166       0.42096686
C       -0.16799187      -7.64127127      -0.43054254
Br      -1.62644331      -6.63672015       0.25567105
H       -1.54629267       0.75177724      -2.13201151
H       -2.97523798      -0.68193970      -3.55423281
H       -1.88475995      -4.10225053      -1.17865900
H       -0.43112482      -2.69204555       0.21187478
H       -3.26781977      -4.82765897      -4.86217195
H       -3.57089140      -5.45351584      -3.22312823
H        2.14850050      -5.87314989      -3.20135555
H        1.45771718      -4.29518948      -4.98336994
H        2.02409847      -8.14450807      -2.99933521
H        2.85013108      -9.86046136      -1.46574845
H        1.75008249     -10.21915950       0.72806667
H       -0.17419993      -8.83294264       1.38280406
C       -0.88178976       0.88178976       0.88178976
C       -1.95180284       0.32008247       1.57771518
C       -2.75727420       1.13067182       2.38392142
C       -2.48645082       2.49980362       2.49918284
C       -1.43088344       3.05430025       1.77209058
C       -0.61806499       2.24635624       0.97333094
C       -3.38520917       3.33983118       3.33597077
O       -4.59829157       3.13291623       3.24564455
C       -2.84105179       4.46549081       4.22004934
N       -1.41068418       4.43663469       4.49370706
N       -0.64625463       5.45645633       3.95870270
C        0.63627080       5.43399931       4.16006761
C        1.31300753       4.35760436       4.93027435
C        0.54373290       3.44918187       5.52970376
C       -0.91991542       3.47344190       5.36123207
O       -1.60354614       2.62646376       5.92951400
C        1.51603100       6.52311620       3.61582394
C        2.60925969       6.94833937       4.39811679
C        3.48318745       7.94102278       3.94584914
C        3.26750034       8.54732570       2.71530638
C        2.17568714       8.16432983       1.94041125
C        1.29915761       7.15892655       2.38003672
Br      -0.10179516       6.73640329       1.16929396
H       -2.17264300      -0.74044673       1.49433066
H       -3.59883991       0.69437885       2.91819173
H       -1.24332753       4.12028402       1.80205792
H        0.20264705       2.69461880       0.41932384
H       -3.36630401       4.41052077       5.18082590
H       -3.09249060       5.41708619       3.73795868
H        2.39104103       4.31365246       5.00339351
H        0.94704861       2.64143115       6.12645970
H        2.79376445       6.52904253       5.38446673
H        4.32831302       8.24472761       4.55966414
H        3.94175323       9.32298988       2.35977368
H        2.01494388       8.65666394       0.98261845
C        0.88178976      -0.88178976       0.88178976
C        0.30073321      -1.85659920       1.69226808
C        1.11129710      -2.66194526       2.49862509
C        2.50186222      -2.49657969       2.48699538
C        3.06746424      -1.49565389       1.69415614
C        2.26212094      -0.69563161       0.87999962
C        3.33166218      -3.34501545       3.38433349
O        2.91576380      -3.52984220       4.53124636
C        4.68254165      -3.90900123       2.93504907
N        4.94200174      -3.89722826       1.50179592
N        5.94768464      -3.06323223       1.05049679
C        6.17498292      -3.00957113      -0.22675793
C        5.39617006      -3.79701966      -1.21831854
C        4.51005694      -4.67606247      -0.75096668
C        4.26138693      -4.79682038       0.69638209
O        3.44254455      -5.61888672       1.09809263
C        7.26467972      -2.13266428      -0.77443486
C        8.00803601      -2.60473750      -1.87557704
C        9.02162035      -1.83364807      -2.45158396
C        9.33078152      -0.58731651      -1.92296629
C        8.62993577      -0.11522140      -0.81610323
C        7.60114473      -0.87667671      -0.23801576
Br       6.72595755      -0.05039928       1.23113558
H       -0.77704574      -1.99256588       1.71100679
H        0.65703447      -3.41509538       3.13928064
H        4.13458502      -1.31369239       1.71739207
H        2.72067219       0.07445728       0.26508068
H        4.73240772      -4.95007580       3.27516717
H        5.46676371      -3.33691755       3.44385422
H        5.54409267      -3.66306120      -2.28114894
H        3.91223871      -5.30567204      -1.39706852
H        7.82659922      -3.59056922      -2.29742363
H        9.57386999      -2.21143087      -3.30922212
H       10.12094962       0.01557318      -2.36436610
H        8.89147742       0.85959737      -0.40754154
