137
Properties=species:S:1:pos:R:3 pbc="F F F"
C        0.00000000       0.00000000       0.00000000
C        0.88288845       0.88288845      -0.88288845
C        2.16383246       1.21428727      -0.45790182
C        2.95955843       2.01703046      -1.26618620
C        2.46799378       2.48174124      -2.49136024
C        1.17123769       2.16261563      -2.95027917
C        0.39005949       1.34660184      -2.10840999
C        0.68341479       2.67562804      -4.25523601
C       -0.58637239       2.44669730      -4.77599712
C       -0.93853672       2.98817960      -6.01427461
C       -0.01545855       3.75458122      -6.69753032
S       -0.42799462       4.46878606      -8.27178331
C        0.58457045       5.98524115      -8.19140994
C        0.17754451       6.92061188      -7.04973133
O       -0.84362581       6.72833095      -6.38477761
C        1.01961197       8.08997280      -6.79059712
C        0.87565443       8.98715246      -5.74308168
C        1.83600564      10.04160523      -5.78229740
C        2.67050267       9.90381294      -6.86053947
S        2.32551230       8.54262203      -7.80450298
N        1.21485356       3.95958738      -6.19298635
N        1.56027652       3.42104891      -4.97026515
H        2.54826663       0.85538236       0.49272788
H        3.96434531       2.28606439      -0.94957753
H        3.12318918       3.10967029      -3.09581352
H       -0.61693272       1.05555201      -2.39116780
H       -1.32797213       1.86128020      -4.24586396
H       -1.93121360       2.81962652      -6.41933411
H        0.44268359       6.51641111      -9.13799557
H        1.63698279       5.70114780      -8.09955487
H        0.10647295       8.88613834      -4.98422758
H        1.89493521      10.84644843      -5.05960525
C        3.73379005      10.82532598      -7.16686225
C        4.62429324      11.59709315      -7.42340757
Br       6.06416158      12.84497540      -7.83821966
C       -0.88288845      -0.88288845      -0.88288845
C       -1.90774771      -1.62281637      -0.30545747
C       -2.70535328      -2.42255055      -1.11487126
C       -2.47134796      -2.47610229      -2.49364501
C       -1.43806181      -1.73651187      -3.10955882
C       -0.64799123      -0.93509358      -2.26198651
C       -1.21875055      -1.82002492      -4.57550337
C       -0.20859821      -1.15972234      -5.26800149
C       -0.09344650      -1.31984327      -6.65062772
C       -0.98532398      -2.14502911      -7.30629990
S       -0.86671412      -2.38222895      -9.06363168
C       -1.48497110      -4.09554002      -9.18071042
C       -0.60512589      -5.10468863      -8.43807320
O        0.49311379      -4.79031892      -7.97227762
C       -1.08724973      -6.48291692      -8.33001525
C       -0.48801920      -7.50641167      -7.61145770
C       -1.18447800      -8.74605856      -7.72937172
C       -2.28492224      -8.61452226      -8.53541057
S       -2.49230309      -7.04578140      -9.13455282
N       -1.96755944      -2.76897128      -6.63089656
N       -2.07988129      -2.60661345      -5.26509585
H       -2.09181586      -1.58363998       0.76453473
H       -3.51183048      -3.00804105      -0.68011570
H       -3.11872389      -3.11612584      -3.09382325
H        0.16498710      -0.33529362      -2.65948057
H        0.50922250      -0.52141973      -4.76697479
H        0.69895807      -0.81387576      -7.19282934
H       -1.49256915      -4.36212755     -10.24239358
H       -2.51043366      -4.12627790      -8.80097390
H        0.41673847      -7.36428570      -7.02929163
H       -0.88160276      -9.66919531      -7.25019082
C       -3.17670641      -9.70100319      -8.84826868
C       -3.92357564     -10.61093097      -9.11028736
Br      -5.13120002     -12.08220723      -9.53394939
C       -0.88288845       0.88288845       0.88288845
C       -0.29945949       1.66098009       1.87558197
C       -1.10892270       2.46039984       2.67345255
C       -2.49387147       2.47466139       2.47256240
C       -3.11603540       1.69530288       1.47279421
C       -2.26804452       0.89654787       0.68047893
C       -4.58885724       1.73505736       1.29036424
C       -5.29625660       0.97994171       0.36012374
C       -6.68610671       1.09409877       0.28371201
C       -7.33642219       1.95336801       1.14686279
S       -9.10480095       2.12027854       1.08749526
C       -9.43453120       2.48053789       2.84615245
C       -9.03020075       1.33711988       3.78056709
O       -8.68840535       0.23376611       3.34731129
C       -9.10128638       1.57549958       5.22339593
C       -8.68010204       0.70687836       6.21890817
C       -8.91289337       1.21558785       7.53142706
C       -9.50412686       2.45080766       7.47992055
S       -9.77034954       3.00035592       5.90193185
N       -6.64330639       2.69001041       2.03411048
N       -5.26982959       2.57649375       2.10526724
H        0.77527026       1.65194761       2.03424375
H       -0.66947340       3.07575554       3.45475829
H       -3.09406156       3.11460955       3.12000188
H       -2.66969357       0.27031069      -0.11021717
H       -4.80346294       0.28925419      -0.31354510
H       -7.24220063       0.49973781      -0.43419141
H      -10.51312126       2.63955082       2.94441820
H       -8.91459771       3.40331623       3.11977152
H       -8.22691075      -0.25588395       6.00581205
H       -8.66083872       0.69357355       8.44657663
C       -9.86873986       3.20798442       8.64925400
C      -10.17410324       3.84211996       9.62857077
Br     -10.66785001       4.86746348      11.21204315
C        0.88288845      -0.88288845       0.88288845
C        0.48879532      -1.16104313       2.18618311
C        1.29687301      -1.96414254       2.98175954
C        2.49150574      -2.48149047       2.46809905
C        2.91893474      -2.21663693       1.14856082
C        2.07735607      -1.40012246       0.36759279
C        4.19368707      -2.78170603       0.63888574
C        4.71593498      -2.55021284      -0.62982578
C        5.93184146      -3.13025098      -0.99817495
C        6.60165392      -3.91982169      -0.08482262
S        8.15593241      -4.66845206      -0.51180972
C        8.94849056      -4.68043243       1.13229855
C        9.16346066      -3.27765447       1.70677259
O        8.97576812      -2.26282632       1.03088830
C        9.64547735      -3.16966113       3.08504341
C        9.79870273      -1.99739528       3.80979056
C       10.32005946      -2.22089059       5.11895824
C       10.54402667      -3.55541875       5.33540966
S       10.13485269      -4.52632503       4.01145958
N        6.08276478      -4.14955139       1.13511112
N        4.87991981      -3.57675675       1.49491402
H       -0.43782859      -0.76076486       2.58798483
H        1.00400584      -2.19225861       4.00372278
H        3.09762767      -3.10654364       3.12450167
H        2.33526085      -1.15190618      -0.65737994
H        4.21148628      -1.92052923      -1.35284349
H        6.34696800      -2.94434762      -1.98356859
H        9.92690839      -5.15674044       1.01344146
H        8.34073747      -5.28547588       1.81147211
H        9.54776954      -1.02099269       3.40807663
H       10.51738823      -1.44010169       5.84349897
C       11.07849615      -4.08372688       6.56375525
C       11.52611435      -4.52618493       7.59249468
Br      12.24987512      -5.24160219       9.25587933
