150
Properties=species:S:1:pos:R:3 pbc="F F F"
O        7.60588634       6.10353421      -4.02345026
C        6.79167052       6.12083267      -4.94848406
C        5.41684014       6.75753096      -4.83081808
S        4.41780500       5.96326870      -3.53337578
C        4.27790356       4.30144691      -4.25930274
C        3.40753952       3.40993615      -3.40808036
C        3.97571695       2.61513681      -2.40044863
C        3.17082870       1.80501371      -1.59684022
C        1.79152708       1.79152708      -1.79152708
C        1.20977385       2.58219161      -2.78066947
C        2.01578648       3.39097860      -3.58485775
N        7.13766425       5.54951333      -6.15120144
N        6.29614063       5.48852958      -7.22050773
C        6.83778669       5.06626624      -8.32106414
C        6.06889742       4.95639156      -9.52665463
C        4.72130522       5.09142584      -9.79106447
C        4.56042217       4.89814266     -11.18520249
C        5.82087072       4.66103149     -11.68508909
Br       6.22591230       4.36165247     -13.48213040
O        6.73958264       4.68103900     -10.68439687
H        4.85553870       6.74723921      -5.76715415
H        5.56559966       7.80843789      -4.56193544
H        5.27184065       3.85214638      -4.35704661
H        3.85286613       4.37605149      -5.26655298
H        5.05077409       2.63295133      -2.22893128
H        3.62783358       1.19864249      -0.81963326
H        0.13290533       2.58325435      -2.92756837
H        1.55085910       4.01731922      -4.34309678
H        8.07693718       5.16468329      -6.20285049
H        7.90675632       4.79413985      -8.38264946
H        3.95116026       5.30886206      -9.06095569
H        3.64138434       4.93562507     -11.75306520
O       -3.94984200      -6.29838903      -7.48463979
C       -4.96104903      -6.08757085      -6.81236737
C       -5.60222929      -4.71546145      -6.68749844
S       -4.46158079      -3.50613671      -5.94673197
C       -4.27439943      -4.26148315      -4.30277063
C       -3.40916301      -3.40707015      -3.40932286
C       -2.02241019      -3.61587516      -3.35301705
C       -1.21597784      -2.81322755      -2.54347724
C       -1.79152708      -1.79152708      -1.79152708
C       -3.16536955      -1.56381867      -1.84344671
C       -3.97126825      -2.36807784      -2.65227673
N       -5.55093603      -7.13852796      -6.14891503
N       -6.64923354      -7.00079903      -5.35514537
C       -7.16950634      -8.11465475      -4.94095599
C       -8.33219992      -8.11833621      -4.10140749
C       -9.02806682      -7.11122308      -3.46450562
C      -10.11611072      -7.72822822      -2.79942839
C      -10.01832703      -9.07326188      -3.07540239
Br     -11.20781555     -10.38218856      -2.47969106
O       -8.93188873      -9.32025529      -3.85287449
H       -6.53128756      -4.72443538      -6.11420911
H       -5.85677571      -4.38075392      -7.69844337
H       -3.82660185      -5.25633268      -4.39809910
H       -5.26119565      -4.39023335      -3.84404160
H       -1.56133590      -4.40020096      -3.95111985
H       -0.14387869      -2.98749100      -2.51473963
H       -3.61629699      -0.76006109      -1.26736997
H       -5.04023417      -2.17186638      -2.69917455
H       -5.11427849      -8.04633664      -6.28385583
H       -6.75673488      -9.09823935      -5.22857140
H       -8.77819653      -6.05737835      -3.48540313
H      -10.87895608      -7.24955512      -2.20156341
O       -5.56158495       4.31230400       7.85898187
C       -5.83967566       5.08299812       6.93831347
C       -6.63283096       4.65900218       5.71335604
S       -5.78592956       3.34006383       4.78845609
C       -4.29792080       4.25647436       4.28425805
C       -3.40996866       3.40773713       3.40785023
C       -2.39273540       2.62411924       3.97444776
C       -1.58293704       1.82120461       3.16854098
C       -1.79152708       1.79152708       1.79152708
C       -2.80362089       2.55546360       1.21355043
C       -3.61205147       3.35931023       2.02026113
N       -5.42696751       6.39291782       7.01849369
N       -5.65552576       7.31102471       6.03862746
C       -5.34504151       8.53198461       6.34809095
C       -5.53770553       9.60171047       5.41252761
C       -5.89827521       9.62476209       4.08075823
C       -5.95578844      10.98804137       3.69993752
C       -5.63039978      11.71200207       4.82458945
Br      -5.57087146      13.57468573       4.92413797
O       -5.36217137      10.87902100       5.86382613
H       -6.85085179       5.48522232       5.03385795
H       -7.59607923       4.27503469       6.06485908
H       -3.73729785       4.57387296       5.16986282
H       -4.59149634       5.16218672       3.74178755
H       -2.23411283       2.62691718       5.05162670
H       -0.80225611       1.21887899       3.62497422
H       -2.97698308       2.52570860       0.14103637
H       -4.41029185       3.93906740       1.56191585
H       -4.92948612       6.64757600       7.86740883
H       -4.94139143       8.80164674       7.34050746
H       -6.09971002       8.75737197       3.46389602
H       -6.21064294      11.39003657       2.72939510
O        5.14274450      -7.96648884       4.62363748
C        5.49308939      -7.02727441       5.34062345
C        4.52805146      -6.25360583       6.22353188
S        3.22280421      -5.44635301       5.24529227
C        4.25551504      -4.29514266       4.28799551
C        3.40724685      -3.40854886       3.40976031
C        3.10699495      -3.79111332       2.09319413
C        2.30475426      -2.98326665       1.28466172
C        1.79152708      -1.79152708       1.79152708
C        2.07130239      -1.40152021       3.09981234
C        2.87497668      -2.20945173       3.90719441
N        6.81909998      -6.66116444       5.35811460
N        7.29775705      -5.61710344       6.09031745
C        8.59067635      -5.51500912       6.11943161
C        9.23112385      -4.46450979       6.85630998
C        8.74485047      -3.35010606       7.50883899
C        9.86277953      -2.69710034       8.08388746
C       10.96125345      -3.45627861       7.74945924
Br      12.71789437      -3.08965713       8.26214366
O       10.58897702      -4.52222209       6.99381940
H        5.02006333      -5.50378038       6.84608835
H        4.05972699      -6.97256156       6.90368445
H        4.96016649      -4.85597981       3.66488734
H        4.84619756      -3.67641144       4.97286160
H        3.48864295      -4.72961689       1.69439687
H        2.08031628      -3.29692478       0.26886826
H        1.66289648      -0.47833299       3.50249858
H        3.07393702      -1.90492823       4.93240986
H        7.43959383      -7.22312035       4.78175677
H        9.24834726      -6.23500828       5.60019008
H        7.70491993      -3.05187456       7.56418353
H        9.86410273      -1.79163374       8.67433815
C       -0.00445707       0.01189536      -1.78238275
H       -0.66409135       0.67374010      -2.43557963
H        0.65740317      -0.63156657      -2.45157240
C       -0.90989263      -0.90692880      -0.91072765
C        0.90977584       0.90977584      -0.90977584
C       -0.00465871       1.77757030       0.00794375
H       -0.66225468       2.44313916      -0.64384735
H        0.64322798       2.43503045       0.67728295
C       -1.78241447       0.00034974      -0.00472694
H       -2.45427497      -0.65498947       0.64260836
H       -2.43311707       0.67328779      -0.65473579
C       -0.91132561       0.90220522       0.91563759
C       -0.01476271      -0.02253852       1.78660255
H       -0.67934791      -0.69751639       2.42135241
H        0.63392994       0.61504881       2.47327442
C        0.01484550      -1.77751727      -0.01636693
H        0.67870853      -2.42144646      -0.68295456
H       -0.62264859      -2.45592969       0.64226336
C        1.78714474       0.01002794       0.00389507
H        2.44202412       0.67113390       0.66197326
H        2.45385902      -0.65136977      -0.64189061
C        0.91606151      -0.90478549       0.90901405
