129
Properties=species:S:1:pos:R:3 pbc="F F F"
C        0.00000000       0.00000000       0.00000000
O        6.69598232       5.19363019      -3.11354624
C        5.88176650       5.21092864      -4.03858004
C        4.50693611       5.84762693      -3.92091406
S        3.50790098       5.05336467      -2.62347176
C        3.36799953       3.39154288      -3.34939872
C        2.49763550       2.50003212      -2.49817633
C        3.06581293       1.70523279      -1.49054461
C        2.26092468       0.89510968      -0.68693620
C        0.88162305       0.88162305      -0.88162305
C        0.29986982       1.67228759      -1.87076545
C        1.10588246       2.48107457      -2.67495372
N        6.22776022       4.63960931      -5.24129741
N        5.38623660       4.57862556      -6.31060371
C        5.92788267       4.15636222      -7.41116011
C        5.15899340       4.04648754      -8.61675060
C        3.81140119       4.18152182      -8.88116044
C        3.65051815       3.98823864     -10.27529847
C        4.91096670       3.75112747     -10.77518506
Br       5.31600827       3.45174844     -12.57222638
O        5.82967861       3.77113497      -9.77449285
H        3.94563468       5.83733519      -4.85725013
H        4.65569564       6.89853387      -3.65203142
H        4.36193663       2.94224236      -3.44714258
H        2.94296210       3.46614747      -4.35664896
H        4.14087007       1.72304731      -1.31902726
H        2.71792956       0.28873846       0.09027077
H       -0.77699869       1.67335033      -2.01766435
H        0.64095507       3.10741520      -3.43319276
H        7.16703315       4.25477926      -5.29294646
H        6.99685229       3.88423582      -7.47274544
H        3.04125624       4.39895804      -8.15105167
H        2.73148031       4.02572105     -10.84316118
O       -3.92268931      -4.00266342      -7.07780602
C       -4.54360054      -4.46759577      -6.12007887
C       -5.43125400      -3.62457793      -5.21964517
S       -4.48777284      -2.30932504      -4.38763953
C       -3.38082507      -3.34528685      -3.38282921
C       -2.49993887      -2.49743787      -2.49846721
C       -1.23835502      -2.07642724      -2.94680806
C       -0.42944439      -1.27410841      -2.13941777
C       -0.88162305      -0.88162305      -0.88162305
C       -2.13581754      -1.28216098      -0.42494433
C       -2.94349220      -2.08581641      -1.23260214
N       -4.44397398      -5.81317892      -5.85151404
N       -5.06362829      -6.41403187      -4.79780571
C       -4.99711382      -7.70956442      -4.78872677
C       -5.60993507      -8.47217880      -3.74011768
C       -6.21086574      -8.11189259      -2.55132512
C       -6.65920829      -9.31071302      -1.94413394
C       -6.30714919     -10.32756924      -2.80256080
Br      -6.67088508     -12.13785315      -2.53124487
O       -5.65853187      -9.82936246      -3.88741211
H       -5.96240383      -4.21067434      -4.46714181
H       -6.19243065      -3.15935448      -5.85447579
H       -2.75384612      -3.96269607      -4.03477937
H       -3.97683587      -4.02518924      -2.76373343
H       -0.88415541      -2.36312932      -3.93565990
H        0.54306781      -0.95520433      -2.50426073
H       -2.49682768      -0.96807627       0.55088797
H       -3.92778135      -2.37943692      -0.87434476
H       -3.86932281      -6.35019173      -6.49524434
H       -4.48831219      -8.27698288      -5.58853848
H       -6.31493716      -7.10151022      -2.17481856
H       -7.18044467      -9.41682411      -1.00309377
O       -5.95323446       2.92612216       6.12380212
C       -5.59680832       3.96667404       5.56779282
C       -5.89512476       4.27120788       4.10914446
S       -5.14817266       3.03737590       2.99918885
C       -3.39397036       3.35595216       3.35901862
C       -2.49981246       2.49872567       2.49730582
C       -2.07311349       1.24004805       2.94842878
C       -1.26299827       0.43512067       2.14485162
C       -0.88162305       0.88162305       0.88162305
C       -1.30467256       2.12431614       0.41393415
C       -2.11367513       2.92925889       1.21897674
N       -4.90560055       4.90766526       6.29540114
N       -4.44045894       6.07194733       5.76305959
C       -3.95766587       6.91399803       6.62374111
C       -3.43730877       8.18230282       6.20261995
C       -3.19151368       8.72473879       4.95783099
C       -2.70163096      10.03585744       5.17656686
C       -2.68281249      10.21293537       6.54153137
Br      -2.15060789      11.77347313       7.41590207
O       -3.11433926       9.08930745       7.17165973
H       -5.57100840       5.26739494       3.80181665
H       -6.98246233       4.23916487       3.98463373
H       -3.18634077       3.15049416       4.41448664
H       -3.16976623       4.41388043       3.18211188
H       -2.38110650       0.87497068       3.92686745
H       -0.94473183      -0.53771730       2.50938272
H       -1.01892894       2.47084652      -0.57575948
H       -2.45267933       3.89036103       0.83852266
H       -4.75503402       4.68430556       7.27541929
H       -3.94358864       6.70228863       7.70795628
H       -3.35348940       8.22984020       4.00793634
H       -2.40772702      10.76146567       4.43116985
O        4.12915785      -7.06982800       3.80417289
C        4.53097951      -6.12056655       4.47972912
C        3.61888741      -5.28967571       5.36691399
S        2.30868465      -4.47184033       4.40421242
C        3.34542239      -3.38419718       3.37932156
C        2.49738269      -2.49856598       2.49989528
C        2.14368984      -2.91182558       1.20607491
C        1.34142179      -2.10417861       0.39737016
C        0.88162305      -0.88162305       0.88162305
C        1.21482543      -0.46053182       2.16756561
C        2.01848642      -1.26834472       2.97507961
N        5.86754191      -5.79650684       4.44461820
N        6.40127006      -4.74611872       5.12807709
C        7.69699546      -4.68440231       5.11400724
C        8.39270245      -3.63259048       5.79693861
C        7.96208315      -2.48365741       6.42834289
C        9.11738004      -1.84914925       6.94752597
C       10.18069170      -2.65288564       6.60370190
Br      11.96324711      -2.32674598       7.04999001
O        9.75181776      -3.72924598       5.89424270
H        4.15338414      -4.53704302       5.94979282
H        3.15049531      -5.97201734       6.08374828
H        4.01222685      -3.98615506       2.75293965
H        3.97643107      -2.76374907       4.02557840
H        2.48329627      -3.87386849       0.82577987
H        1.07517377      -2.44173126      -0.60050778
H        0.84813856       0.48718200       2.55305942
H        2.25930000      -0.93881552       3.98344751
H        6.45172593      -6.39545930       3.86757365
H        8.31526120      -5.44066371       4.59790865
H        6.93414280      -2.15089221       6.50623093
H        9.16545202      -0.92639232       7.50851819
