174
Properties=species:S:1:pos:R:3 pbc="F F F"
C        5.16701790      11.13857218      -3.52193996
O        4.48987923       9.92256183      -3.81305416
C        4.99702255       9.22439502      -4.87022705
O        5.92006248       9.63488131      -5.57514294
C        4.31408860       7.87771194      -5.09340240
H        4.09696411       7.81339178      -6.16993870
N        3.01959232       7.69219397      -4.38468886
N        2.80808916       6.24889950      -4.27576824
C        4.03858489       5.70020209      -4.34246769
C        4.26422988       4.23964074      -4.28911193
O        5.17026406       3.70507701      -4.92476417
C        3.38667609       3.41180196      -3.41615318
C        3.09562529       2.09786295      -3.80326485
C        2.29063661       1.28972465      -2.99515629
C        1.79244444       1.79244444      -1.79244444
C        2.09322880       3.09132985      -1.38683495
C        2.89386769       3.89878012      -2.19781902
C        5.14358260       6.66736180      -4.65394921
H        5.71584179       6.30346333      -5.51739766
C        6.08776859       6.87268341      -3.47241048
C        7.46704287       6.67212314      -3.63731387
C        8.34983627       6.86502262      -2.57198896
C        7.86510084       7.25798832      -1.32514868
C        6.49705800       7.45535932      -1.14896135
Br       5.83925437       7.98714571       0.54273378
C        5.61324457       7.26589306      -2.20896653
H        6.24841581      10.98472185      -3.44665421
H        4.80843930      11.50348490      -2.55528821
H        4.93432202      11.88770215      -4.28431066
H        2.24210645       8.11073291      -4.88945578
H        3.48864345       1.71595006      -4.74214497
H        2.05874733       0.27858717      -3.31483540
H        1.71091707       3.49376633      -0.45359234
H        3.12575670       4.91525414      -1.88432177
H        7.85590049       6.35760525      -4.60340387
H        9.41369889       6.70398098      -2.71813135
H        8.55616120       7.40353157      -0.50114872
H        4.54308611       7.42312380      -2.07283732
C       -9.61021849      -2.05768067      -8.15963088
O       -8.87891416      -2.36664519      -6.97993587
C       -8.58144351      -3.68897908      -6.82122204
O       -8.97111255      -4.56966765      -7.58930653
C       -7.71058732      -3.97408431      -5.60053131
H       -8.17220256      -4.82694154      -5.08115049
N       -7.61826714      -2.86919295      -4.60901506
N       -6.39008394      -3.09531982      -3.84735314
C       -5.59711177      -3.82885427      -4.65528863
C       -4.25359404      -4.29261697      -4.24677153
O       -3.80548086      -5.37452925      -4.62009513
C       -3.42076853      -3.40491800      -3.38894470
C       -2.53629728      -3.98759172      -2.47286409
C       -1.72727830      -3.18081134      -1.66742791
C       -1.79244444      -1.79244444      -1.79244444
C       -2.65337526      -1.20223837      -2.71577997
C       -3.46425215      -2.00984849      -3.51636618
C       -6.24781803      -4.29004779      -5.92702779
H       -6.13760147      -5.37840651      -6.02069479
C       -5.65692876      -3.61439399      -7.16153973
C       -5.16290844      -4.39664269      -8.21692875
C       -4.62790039      -3.79855505      -9.36039241
C       -4.57612925      -2.40903115      -9.46307744
C       -5.05944629      -1.62272711      -8.41920528
Br      -4.98804745       0.26221806      -8.55783690
C       -5.59544792      -2.21483143      -7.27782481
H       -9.13927372      -2.49397034      -9.04654781
H       -9.61704955      -0.97060796      -8.27955490
H      -10.64340482      -2.40287916      -8.06005084
H       -8.41248600      -2.85600368      -3.97380547
H       -2.49332076      -5.07015413      -2.38326359
H       -1.05809293      -3.64460163      -0.94947535
H       -2.71336257      -0.12323585      -2.82167732
H       -4.14064521      -1.54986468      -4.23482272
H       -5.19062190      -5.48174795      -8.14453976
H       -4.24940726      -4.42002660     -10.16637736
H       -4.15682791      -1.95095152     -10.35306207
H       -5.97668269      -1.60039475      -6.46196979
C      -10.23646188       2.30651025       7.28455790
O       -9.34222201       2.64967577       6.23359743
C       -8.89005136       3.93684997       6.26474330
O       -9.27261457       4.77134840       7.08612376
C       -7.85569677       4.24428053       5.18522564
H       -8.15993401       5.19581721       4.72454337
N       -7.76397245       3.24719518       4.08530753
N       -6.43734502       3.40563231       3.48977958
C       -5.67249489       3.95072794       4.45803185
C       -4.24866463       4.29284379       4.25147413
O       -3.73609371       5.26861514       4.79539639
C       -3.41867834       3.40848045       3.38747244
C       -2.37548028       3.97592395       2.64534886
C       -1.56664864       3.16873676       1.84013215
C       -1.79244444       1.79244444       1.79244444
C       -2.81405396       1.21401278       2.54332686
C       -3.62405860       2.02275135       3.34365688
C       -6.41668659       4.34871486       5.69949216
H       -6.20397242       5.40036540       5.93236495
C       -6.05068888       3.48130056       6.90087304
C       -5.60513340       4.08371787       8.08762860
C       -5.27534501       3.30911674       9.20238610
C       -5.38316408       1.92020796       9.14486580
C       -5.81994254       1.31130386       7.97013228
Br      -5.96497042      -0.57287497       7.89157084
C       -6.15159045       2.07989487       6.85661884
H       -9.83030709       2.58787422       8.26161056
H      -10.37223013       1.22133588       7.27364641
H      -11.20832508       2.78008067       7.11792907
H       -8.47438974       3.39522835       3.37267705
H       -2.20808766       5.04916593       2.68948489
H       -0.77200804       3.62333889       1.25682298
H       -2.99979384       0.14457637       2.51390552
H       -4.42547318       1.57270692       3.92715251
H       -5.50930347       5.16601463       8.14159151
H       -4.93133539       3.79280497      10.11167086
H       -5.12284214       1.32430763      10.01369173
H       -6.49639625       1.60451946       5.93813152
C        6.08854632     -10.85193408       2.88704963
O        5.23796155      -9.76342845       3.22410521
C        5.53509447      -9.15014276       4.40640740
O        6.41861101      -9.54068296       5.17079275
C        4.67007626      -7.92498892       4.69013776
H        4.32942100      -8.01894044       5.73193315
N        3.44855625      -7.79674108       3.85117783
N        3.07303846      -6.38322013       3.87649831
C        4.21112367      -5.71487056       4.15526044
C        4.25844098      -4.24306607       4.29147550
O        5.01564868      -3.69492704       5.08952951
C        3.38654477      -3.41510862       3.41297784
C        2.89398841      -2.19941076       3.90335392
C        2.08895285      -1.39092927       3.09563543
C        1.79244444      -1.79244444       1.79244444
C        2.29477047      -2.98993179       1.28669134
C        3.09511449      -3.79857034       2.09678200
C        5.38642500      -6.58555905       4.49290956
H        5.81055015      -6.27072412       5.45542851
C        6.47312043      -6.53756471       3.42217733
C        7.79027052      -6.20832175       3.77788760
C        8.80208429      -6.16924680       2.81551676
C        8.51009906      -6.45557447       1.48256431
C        7.20487223      -6.77903638       1.11747006
Br       6.80841943      -7.16617036      -0.69092350
C        6.19306409      -6.82094983       2.07409025
H        7.14418839     -10.57178196       2.96382153
H        5.88663502     -11.13144075       1.84913665
H        5.86798655     -11.71083753       3.52751073
H        2.67813396      -8.35769290       4.20646828
H        3.13081334      -1.89590326       4.92002188
H        1.69970663      -0.45896444       3.49349884
H        2.07042737      -3.31319851       0.27464986
H        3.48434124      -4.73656428       1.70442709
H        8.02835140      -5.97510778       4.81345043
H        9.81515564      -5.91138670       3.10926889
H        9.30038536      -6.42083455       0.73962158
H        5.17220882      -7.07698660       1.78985181
C       -0.00445707       0.01189536      -1.78238275
H       -0.66409135       0.67374010      -2.43557963
H        0.65740317      -0.63156657      -2.45157240
C       -0.90989263      -0.90692880      -0.91072765
C        0.90977584       0.90977584      -0.90977584
C       -0.00465871       1.77757030       0.00794375
H       -0.66225468       2.44313916      -0.64384735
H        0.64322798       2.43503045       0.67728295
C       -1.78241447       0.00034974      -0.00472694
H       -2.45427497      -0.65498947       0.64260836
H       -2.43311707       0.67328779      -0.65473579
C       -0.91132561       0.90220522       0.91563759
C       -0.01476271      -0.02253852       1.78660255
H       -0.67934791      -0.69751639       2.42135241
H        0.63392994       0.61504881       2.47327442
C        0.01484550      -1.77751727      -0.01636693
H        0.67870853      -2.42144646      -0.68295456
H       -0.62264859      -2.45592969       0.64226336
C        1.78714474       0.01002794       0.00389507
H        2.44202412       0.67113390       0.66197326
H        2.45385902      -0.65136977      -0.64189061
C        0.91606151      -0.90478549       0.90901405
