182
Properties=species:S:1:pos:R:3 pbc="F F F"
C        5.16701790      11.13857218      -3.52193996
O        4.48987923       9.92256183      -3.81305416
C        4.99702255       9.22439502      -4.87022705
O        5.92006248       9.63488131      -5.57514294
C        4.31408860       7.87771194      -5.09340240
H        4.09696411       7.81339178      -6.16993870
N        3.01959232       7.69219397      -4.38468886
N        2.80808916       6.24889950      -4.27576824
C        4.03858489       5.70020209      -4.34246769
C        4.26422988       4.23964074      -4.28911193
O        5.17026406       3.70507701      -4.92476417
C        3.38667609       3.41180196      -3.41615318
C        3.09562529       2.09786295      -3.80326485
C        2.29063661       1.28972465      -2.99515629
C        1.79244444       1.79244444      -1.79244444
C        2.09322880       3.09132985      -1.38683495
C        2.89386769       3.89878012      -2.19781902
C        5.14358260       6.66736180      -4.65394921
H        5.71584179       6.30346333      -5.51739766
C        6.08776859       6.87268341      -3.47241048
C        7.46704287       6.67212314      -3.63731387
C        8.34983627       6.86502262      -2.57198896
C        7.86510084       7.25798832      -1.32514868
C        6.49705800       7.45535932      -1.14896135
C        5.61324457       7.26589306      -2.20896653
H        6.24841581      10.98472185      -3.44665421
H        4.80843930      11.50348490      -2.55528821
H        4.93432202      11.88770215      -4.28431066
H        2.24210645       8.11073291      -4.88945578
H        3.48864345       1.71595006      -4.74214497
H        2.05874733       0.27858717      -3.31483540
H        1.71091707       3.49376633      -0.45359234
H        3.12575670       4.91525414      -1.88432177
H        7.85590049       6.35760525      -4.60340387
H        9.41369889       6.70398098      -2.71813135
H        8.55616120       7.40353157      -0.50114872
H        4.54308611       7.42312380      -2.07283732
C        5.99624111       7.86023335       0.13900583
C        5.57680697       8.19931535       1.21767835
Br       4.89861742       8.74758226       2.96180057
C      -10.62302164      -2.60727938      -6.59722901
O       -9.61325569      -2.95415620      -5.65808332
C       -9.06161822      -4.18882623      -5.84120017
O       -9.44634848      -4.98398594      -6.69975231
C       -7.91315088      -4.49004498      -4.88200709
H       -8.09588273      -5.49954817      -4.48486368
N       -7.80553931      -3.58235858      -3.70857726
N       -6.42246337      -3.66984388      -3.24044966
C       -5.70513602      -4.06308214      -4.31303651
C       -4.24529162      -4.29228679      -4.25540414
O       -3.70510202      -5.17038826      -4.92461496
C       -3.41672431      -3.41111581      -3.38679112
C       -2.26832044      -3.94195668      -2.78647597
C       -1.45967717      -3.13446078      -1.98137960
C       -1.79244444      -1.79244444      -1.79244444
C       -2.92110400      -1.24804751      -2.40224209
C       -3.73034734      -2.05758910      -3.20253039
C       -6.52219765      -4.42283411      -5.51986185
H       -6.24560788      -5.42858611      -5.86250879
C       -6.33749865      -3.43054499      -6.66481883
C       -5.95194363      -3.89130958      -7.93322666
C       -5.78782596      -3.00149193      -8.99752996
C       -6.00364415      -1.63720878      -8.80738491
C       -6.38209424      -1.16823421      -7.55105022
C       -6.54866198      -2.05215040      -6.48729178
H      -10.28416095      -2.77008998      -7.62554095
H      -10.84583349      -1.54316163      -6.47821730
H      -11.53395148      -3.17792929      -6.39445405
H       -8.43483427      -3.85128860      -2.95617227
H       -2.01806798      -4.98867658      -2.93999392
H       -0.58145291      -3.56249340      -1.50822360
H       -3.19057182      -0.20553865      -2.26216527
H       -4.61493829      -1.63467097      -3.67572335
H       -5.77286092      -4.95261077      -8.09143791
H       -5.48799314      -3.37624825      -9.97156983
H       -5.87182698      -0.95115844      -9.63785608
H       -6.84778021      -1.68647160      -5.50479542
C       -6.60402698       0.24089685      -7.35433849
C       -6.78989566       1.42104412      -7.18959243
Br      -7.09042958       3.32924243      -6.92321197
C      -10.37031922       2.39333387       7.06387695
O       -9.43783530       2.73983295       6.04782697
C       -8.95168945       4.01245218       6.12750301
O       -9.33423157       4.83460308       6.96125208
C       -7.87937292       4.32008536       5.08574466
H       -8.14440339       5.29204131       4.64384989
N       -7.78406083       3.35126646       3.96114787
N       -6.43737816       3.48856846       3.40681028
C       -5.68543307       3.98526315       4.41055845
C       -4.24753551       4.29273297       4.25271407
O       -3.72396823       5.23846852       4.83766849
C       -3.41807985       3.40934164       3.38720974
C       -2.33930230       3.96731277       2.69013802
C       -1.53052733       3.16002546       1.88496476
C       -1.79244444       1.79244444       1.79244444
C       -2.85019678       1.22264714       2.49854968
C       -3.65996404       2.03165124       3.29885154
C       -6.45307282       4.36991825       5.64190254
H       -6.21831139       5.40841103       5.90998035
C       -6.14485391       3.46002856       6.82798001
C       -5.71653355       4.01700272       8.04294360
C       -5.43952262       3.20324160       9.14408363
C       -5.58362233       1.82000577       9.04460974
C       -6.00368781       1.25597429       7.84171657
C       -6.28275616       2.06374818       6.74159982
H       -9.98425285       2.63634396       8.05919507
H      -10.53535116       1.31310999       7.01875127
H      -11.32379968       2.89842063       6.88411451
H       -8.46984768       3.53864670       3.23380077
H       -2.14393074       5.03381575       2.76899199
H       -0.70766684       3.60788736       1.33661570
H       -3.06421114       0.16006024       2.43400435
H       -4.48947391       1.58852888       3.84732982
H       -5.59269829       5.09429679       8.12991453
H       -5.10811559       3.65202067      10.07567497
H       -5.36422327       1.19348621       9.90313201
H       -6.61447272       1.62354957       5.80102494
C       -6.15156568      -0.17269603       7.73859898
C       -6.27541339      -1.36920743       7.65223800
Br      -6.47566467      -3.30386516       7.51259960
C        7.65951724      -9.98730328       2.18070951
O        6.55144695      -9.16061197       2.51343630
C        6.50072189      -8.77071456       3.82020818
O        7.30011963      -9.15491155       4.67505555
C        5.35899410      -7.80381182       4.12239703
H        4.86998537      -8.17510003       5.03520919
N        4.30340664      -7.71481051       3.07825800
N        3.63725479      -6.42656402       3.26893809
C        4.54074404      -5.64503227       3.89547836
C        4.24941608      -4.25068600       4.29288047
O        4.72182452      -3.76154438       5.31673634
C        3.38801678      -3.41963083       3.40698362
C        2.57041241      -2.44090057       3.98544011
C        1.76511113      -1.63198115       3.17842526
C        1.79244444      -1.79244444       1.79244444
C        2.61824656      -2.74869314       1.20445390
C        3.41865731      -3.55908540       2.01272411
C        5.79715475      -6.34926817       4.31847069
H        5.97030023      -6.17744450       5.38895804
C        7.01826802      -5.88605882       3.52853564
C        8.15265510      -5.41574252       4.20808225
C        9.28479479      -4.99720384       3.50484922
C        9.29715739      -5.03979998       2.11128046
C        8.17463884      -5.50048491       1.42625493
C        7.04411008      -5.92052837       2.12346570
H        8.60150565      -9.55039937       2.52788685
H        7.70563888     -10.07041475       1.09115879
H        7.51861022     -10.98776766       2.59995694
H        3.62011947      -8.46392206       3.15825360
H        2.55645379      -2.32411229       5.06617239
H        1.12330800      -0.88837332       3.64048858
H        2.64760342      -2.88328910       0.12738322
H        4.06076477      -4.30966518       1.55490266
H        8.15156619      -5.37033936       5.29500406
H       10.15279990      -4.63530599       4.04770533
H       10.17900769      -4.71069535       1.57113846
H        6.16657600      -6.28405287       1.58841836
C        8.18695884      -5.54355779      -0.01304801
C        8.19727685      -5.57963133      -1.21846422
Br       8.21396019      -5.63795920      -3.16752028
C       -0.00445707       0.01189536      -1.78238275
H       -0.66409135       0.67374010      -2.43557963
H        0.65740317      -0.63156657      -2.45157240
C       -0.90989263      -0.90692880      -0.91072765
C        0.90977584       0.90977584      -0.90977584
C       -0.00465871       1.77757030       0.00794375
H       -0.66225468       2.44313916      -0.64384735
H        0.64322798       2.43503045       0.67728295
C       -1.78241447       0.00034974      -0.00472694
H       -2.45427497      -0.65498947       0.64260836
H       -2.43311707       0.67328779      -0.65473579
C       -0.91132561       0.90220522       0.91563759
C       -0.01476271      -0.02253852       1.78660255
H       -0.67934791      -0.69751639       2.42135241
H        0.63392994       0.61504881       2.47327442
C        0.01484550      -1.77751727      -0.01636693
H        0.67870853      -2.42144646      -0.68295456
H       -0.62264859      -2.45592969       0.64226336
C        1.78714474       0.01002794       0.00389507
H        2.44202412       0.67113390       0.66197326
H        2.45385902      -0.65136977      -0.64189061
C        0.91606151      -0.90478549       0.90901405
