142
Properties=species:S:1:pos:R:3 pbc="F F F"
C        1.79143103       1.79143103      -1.79143103
C        2.10151935       1.38130061      -3.08440892
C        2.89334665       2.19757322      -3.89643484
C        3.43108571       3.39626790      -3.41030328
C        3.08771793       3.80261660      -2.11690321
C        2.26785171       3.00717474      -1.30646184
N        4.19521140       4.25854660      -4.21224830
C        5.28433039       3.91220262      -4.82198632
S        6.04397261       2.33948587      -4.68098277
C        7.47548736       2.82272537      -5.62103319
C        7.19583855       4.19444210      -6.16444854
O        7.96079860       4.67573728      -6.99557469
N        6.02592711       4.75298422      -5.64794745
C        5.61773537       6.09576594      -6.01348284
C        6.54851538       7.04200959      -6.48730762
C        6.16779028       8.33331862      -6.87978296
C        4.83867757       8.71855433      -6.79012266
Br       4.31686826      10.45362387      -7.32056475
C        3.89389436       7.82120920      -6.31282337
C        4.28105424       6.52623847      -5.93731348
H        1.72866935       0.43908178      -3.47600761
H        3.09382045       1.88431281      -4.91716619
H        3.44525813       4.75807573      -1.73947115
H        2.00403991       3.34755480      -0.30876698
H        8.35717076       2.86066327      -4.97519954
H        7.64221125       2.12718421      -6.44721177
H        7.61120504       6.81941894      -6.55245675
H        6.92308099       9.02243584      -7.25108942
H        2.84698074       8.10591750      -6.23776675
H        3.48099996       5.86628401      -5.61781763
C       -1.79143103      -1.79143103      -1.79143103
C       -2.28332193      -1.29093499      -2.99297196
C       -3.07495197      -2.10490687      -3.80749587
C       -3.43225742      -3.39874441      -3.40665506
C       -2.90779524      -3.89183219      -2.20761032
C       -2.08653227      -3.09516961      -1.39978640
N       -4.19076386      -4.25612307      -4.21911936
C       -5.37028453      -3.97405272      -4.67418208
S       -6.26323496      -2.51796986      -4.28323643
C       -7.73497638      -3.06118609      -5.12308345
C       -7.38161795      -4.33174338      -5.84136785
O       -8.18238713      -4.80961418      -6.64010926
N       -6.11134969      -4.80525773      -5.51025137
C       -5.61396285      -6.05069858      -6.06232272
C       -6.49222954      -7.04256480      -6.54303824
C       -6.03016213      -8.23747820      -7.11325152
C       -4.66746661      -8.47911076      -7.20077718
Br      -4.03682227     -10.08320539      -7.97102921
C       -3.77006677      -7.53437671      -6.72348343
C       -4.24075533      -6.33486035      -6.16899052
H       -2.05279351      -0.27853789      -3.31242734
H       -3.41839576      -1.71524589      -4.76165780
H       -3.12343993      -4.91419260      -1.90517247
H       -1.68031776      -3.50227087      -0.47777305
H       -8.53086082      -3.26175521      -4.40041755
H       -8.06166695      -2.30930081      -5.84563946
H       -7.57247961      -6.93448135      -6.47611978
H       -6.74925977      -8.96582758      -7.48151889
H       -2.69808381      -7.70662799      -6.78595319
H       -3.48025577      -5.62515901      -5.85968682
C       -1.79143103       1.79143103       1.79143103
C       -2.24888788       3.01252335       1.30581766
C       -3.07054098       3.81000040       2.10681334
C       -3.39379788       3.42849208       3.41536693
C       -2.94456867       2.18673065       3.87593842
C       -2.14750816       1.36516478       3.06881535
N       -4.24953546       4.18574932       4.23072153
C       -4.04678931       5.42565221       4.54607781
S       -2.62822824       6.34716453       4.08904848
C       -3.09267463       7.75894571       5.06762559
C       -4.47579497       7.49127118       5.58766302
O       -5.09009269       8.39588961       6.14612827
N       -4.91096907       6.19181800       5.32407172
C       -6.20147718       5.72873672       5.79677025
C       -6.84567444       6.34235502       6.88980312
C       -8.10940656       5.93267297       7.33881233
C       -8.75683018       4.87886885       6.71165552
Br     -10.46026960       4.32384656       7.30694071
C       -8.14842573       4.23748581       5.64201538
C       -6.89108219       4.66415586       5.18936814
H       -1.98436329       3.35128148       0.30811397
H       -3.45361826       4.74165875       1.70002244
H       -3.23244506       1.84328022       4.86707972
H       -1.81902400       0.39901674       3.44232094
H       -2.40495564       7.87865812       5.90941982
H       -3.09945917       8.66314183       4.45400622
H       -6.38210408       7.15200560       7.44897106
H       -8.56982267       6.44781766       8.17896591
H       -8.64271335       3.41063950       5.13731214
H       -6.49917845       4.14556637       4.32035678
C        1.79143103      -1.79143103       1.79143103
C        2.29232245      -2.98768808       1.28721836
C        3.11387132      -3.78464770       2.08883569
C        3.39415063      -3.42902620       3.41448005
C        2.90157809      -2.21126019       3.89439947
C        2.10413829      -1.38945053       3.08789946
N        4.24836257      -4.18530520       4.23233852
C        4.06981411      -5.43764215       4.51106307
S        2.68745569      -6.38244964       3.99453591
C        3.16341642      -7.80688420       4.94894530
C        4.52564643      -7.51800747       5.51107529
O        5.14884152      -8.42099632       6.06227273
N        4.93363260      -6.20164731       5.29157888
C        6.19945839      -5.71859904       5.80892671
C        6.83157436      -6.34382093       6.90243729
C        8.07261570      -5.91419946       7.39407670
C        8.70820011      -4.82860582       6.81054862
Br      10.38123196      -4.24645124       7.46337367
C        8.11054861      -4.17534046       5.74203785
C        6.87642167      -4.62168427       5.24650026
H        2.06181341      -3.30713208       0.27481325
H        3.53097861      -4.69556440       1.66875644
H        3.15546775      -1.88637007       4.90096718
H        1.74153594      -0.44183403       3.47699171
H        2.45805544      -7.96554626       5.76943188
H        3.20897024      -8.69448563       4.31315136
H        6.37513305      -7.17903948       7.42890820
H        8.52489059      -6.43910901       8.23260665
H        8.59587317      -3.32357018       5.27122163
H        6.49325175      -4.09086372       4.38098613
C       -0.00445707       0.01189536      -1.78238275
H       -0.66409135       0.67374010      -2.43557963
H        0.65740317      -0.63156657      -2.45157240
C       -0.90989263      -0.90692880      -0.91072765
C        0.90977584       0.90977584      -0.90977584
C       -0.00465871       1.77757030       0.00794375
H       -0.66225468       2.44313916      -0.64384735
H        0.64322798       2.43503045       0.67728295
C       -1.78241447       0.00034974      -0.00472694
H       -2.45427497      -0.65498947       0.64260836
H       -2.43311707       0.67328779      -0.65473579
C       -0.91132561       0.90220522       0.91563759
C       -0.01476271      -0.02253852       1.78660255
H       -0.67934791      -0.69751639       2.42135241
H        0.63392994       0.61504881       2.47327442
C        0.01484550      -1.77751727      -0.01636693
H        0.67870853      -2.42144646      -0.68295456
H       -0.62264859      -2.45592969       0.64226336
C        1.78714474       0.01002794       0.00389507
H        2.44202412       0.67113390       0.66197326
H        2.45385902      -0.65136977      -0.64189061
C        0.91606151      -0.90478549       0.90901405
