121
Properties=species:S:1:pos:R:3 pbc="F F F"
C        0.00000000       0.00000000       0.00000000
C        0.88152701       0.88152701      -0.88152701
C        1.19161533       0.47139659      -2.17450490
C        1.98344263       1.28766920      -2.98653081
C        2.52118169       2.48636387      -2.50039925
C        2.17781391       2.89271258      -1.20699919
C        1.35794768       2.09727071      -0.39655782
N        3.28530738       3.34864258      -3.30234427
C        4.37442636       3.00229860      -3.91208229
S        5.13406859       1.42958185      -3.77107874
C        6.56558334       1.91282135      -4.71112917
C        6.28593452       3.28453807      -5.25454451
O        7.05089457       3.76583326      -6.08567066
N        5.11602309       3.84308020      -4.73804343
C        4.70783134       5.18586191      -5.10357882
C        5.63861135       6.13210556      -5.57740359
C        5.25788625       7.42341459      -5.96987894
C        3.92877354       7.80865030      -5.88021863
Br       3.40696424       9.54371984      -6.41066072
C        2.98399033       6.91130517      -5.40291934
C        3.37115022       5.61633445      -5.02740946
H        0.81876532      -0.47082225      -2.56610359
H        2.18391642       0.97440879      -4.00726216
H        2.53535410       3.84817170      -0.82956712
H        1.09413588       2.43765077       0.60113705
H        7.44726674       1.95075925      -4.06529552
H        6.73230723       1.21728019      -5.53730774
H        6.70130102       5.90951492      -5.64255272
H        6.01317696       8.11253182      -6.34118539
H        1.93707672       7.19601348      -5.32786272
H        2.57109593       4.95637998      -4.70791361
C       -0.88152701      -0.88152701      -0.88152701
C       -1.41692938      -0.36373517      -2.05685227
C       -2.20858841      -1.17711338      -2.87194085
C       -2.52253665      -2.48950989      -2.49589828
C       -1.95483651      -2.99899007      -1.32369909
C       -1.13330009      -2.20197145      -0.51650466
N       -3.27994261      -3.34545901      -3.31089261
C       -4.47763008      -3.08267036      -3.72850682
S       -5.39667536      -1.66060045      -3.27745336
C       -6.87550381      -2.22040737      -4.09362267
C       -6.50888178      -3.46279585      -4.85333948
O       -7.31776462      -3.94092997      -5.64370390
N       -5.21888064      -3.91141347      -4.56685260
C       -4.70464722      -5.12916850      -5.16345635
C       -5.56972557      -6.13101441      -5.64738052
C       -5.09253699      -7.29873280      -6.25991000
C       -3.72689631      -7.50263496      -6.38811122
Br      -3.07608351      -9.06983268      -7.21542860
C       -2.84159416      -6.54730727      -5.90931342
C       -3.32792255      -5.37481507      -5.31215651
H       -1.22044541       0.66205792      -2.35565918
H       -2.58641927      -0.77248838      -3.80667973
H       -2.13663611      -4.03392335      -1.04253347
H       -0.69313282      -2.62158349       0.38406671
H       -7.64704195      -2.45977240      -3.35650716
H       -7.23974378      -1.45921868      -4.78793270
H       -6.65026343      -6.05272383      -5.55038140
H       -5.80229758      -8.03594879      -6.62864780
H       -1.76757970      -6.69005056      -6.00332265
H       -2.57784554      -4.65366937      -5.00387461
C       -0.88152701       0.88152701       0.88152701
C       -1.35824827       2.09181054       0.38745801
C       -2.17985877       2.88905604       1.18872783
C       -2.48404568       2.51882861       2.50507052
C       -2.01559748       1.28750178       2.97442641
C       -1.21837164       0.46582474       2.16757982
N       -3.33911824       3.27563974       3.32153625
C       -3.14693917       4.52124319       3.62062490
S       -1.74415820       5.45337804       3.13719293
C       -2.21359050       6.87087785       4.10506550
C       -3.58765393       6.59361105       4.64375213
O       -4.20587612       7.49755829       5.19896408
N       -4.01097358       5.28644259       4.39973055
C       -5.29074880       4.81429636       4.89222692
C       -5.92955814       5.43301642       5.98554595
C       -7.18343333       5.01429424       6.45345222
C       -7.82584850       3.94623050       5.84556348
Br      -9.51608138       3.37890993       6.46635348
C       -7.22224934       3.29961296       4.77635255
C       -5.97499573       3.73520790       4.30469049
H       -1.10880965       2.42216428      -0.61692726
H       -2.57803736       3.81167311       0.77587691
H       -2.28840532       0.95211955       3.97256805
H       -0.87476128      -0.49226876       2.54815709
H       -1.51786525       7.00785943       4.93759683
H       -2.23753522       7.76791296       3.48144698
H       -5.46896323       6.25412081       6.53028463
H       -7.64020644       5.53374500       7.29294272
H       -7.71275063       2.46158867       4.28661361
H       -5.58701120       3.21121559       3.43716273
C        0.88152701      -0.88152701       0.88152701
C        1.41309689      -2.05922961       0.36519031
C        2.23455432      -2.85583383       1.16725449
C        2.48451848      -2.51948148       2.50394485
C        1.96130759      -1.31968499       2.99653309
C        1.16358568      -0.49771809       2.19047244
N        3.33759570      -3.27512959       3.32356894
C        3.17694968      -4.53533718       3.57652040
S        1.82152040      -5.49517231       3.01803647
C        2.30620796      -6.92802120       3.95530469
C        3.65265916      -6.62509457       4.54726338
O        4.28224539      -7.52667921       5.09347390
N        4.04043990      -5.29785598       4.35885084
C        5.28777975      -4.80173104       4.90776129
C        5.91150754      -5.43536836       6.00124461
C        7.13550560      -4.99262781       6.52304637
C        7.76153703      -3.88536679       5.97073866
Br       9.41171672      -3.28534615       6.66428193
C        7.17130341      -3.22353383       4.90337761
C        5.95459220      -3.68279635       4.37750557
H        1.20661771      -2.36423670      -0.65680774
H        2.67565785      -3.75132378       0.73860575
H        2.19116499      -1.00870844       4.01321950
H        0.77685500       0.43600075       2.58979536
H        1.58927751      -7.11422371       4.75982029
H        2.37931717      -7.80292373       3.30465425
H        5.46101706      -6.28808766       6.50426394
H        7.58218803      -5.52455670       7.36014944
H        7.64936925      -2.35476581       4.45681786
H        5.57736762      -3.14322885       3.51479306
