177
Properties=species:S:1:pos:R:3 pbc="F F F"
C        0.00000000       0.00000000       0.00000000
N        5.21437621       9.32127243      -9.27181419
C        5.58066710       8.51950747      -8.53166018
C        6.02810457       7.54012282      -7.62753551
C        7.33999808       7.48561510      -7.30313995
N        8.31841949       8.32509688      -7.78953509
O        7.85519684       6.53030151      -6.43863393
C        7.00241435       5.73806311      -5.71465763
C        7.58552434       4.93401155      -4.73203640
C        6.78086754       4.11157762      -3.94568321
O        7.34884396       3.32573289      -2.98225426
C        5.39631112       4.10025569      -4.13488106
C        4.53566843       3.24373473      -3.29390912
N        3.24330159       3.33822505      -3.33731945
C        2.49553006       2.50137266      -2.49752757
C        2.69643121       2.45445461      -1.11267728
C        1.89879657       1.63911350      -0.30438794
C        0.88156424       0.88156424      -0.88156424
C        0.65672246       0.93152353      -2.25526889
C        1.46315892       1.74417114      -3.05711588
C        4.82042819       4.90445708      -5.12833438
C        5.62552536       5.72168853      -5.93747601
C        5.03288483       6.55271352      -7.06092362
H        4.22645282       7.14599282      -6.60372879
C        4.43574036       5.65889471      -8.15157428
C        3.05151237       5.66930551      -8.39010915
C        2.49340624       4.84685518      -9.37188733
C        3.31425189       4.00932846     -10.12388717
Br       2.55680595       2.89477465     -11.44945842
C        4.68855009       3.98508422      -9.90360295
C        5.24727047       4.80427251      -8.92088818
H        8.11578385       8.78205262      -8.67604883
H        9.24285651       7.90284708      -7.75729222
H        8.66166814       4.96807168      -4.59276278
H        8.31318568       3.45414914      -2.98767387
H        5.04306072       2.52452023      -2.62493293
H        3.47133860       3.06398524      -0.65525884
H        2.07273129       1.61294620       0.76792880
H       -0.14221051       0.35400209      -2.71128375
H        1.28381644       1.79669207      -4.12770923
H        3.74202736       4.87842925      -5.28080551
H        2.39280294       6.31387725      -7.81102806
H        1.41929983       4.86539926      -9.53969007
H        5.33162775       3.33134761     -10.48713076
H        6.32261636       4.76327033      -8.75692373
N      -10.09510360      -5.42145615      -8.29090308
C       -9.11825281      -5.74089346      -7.77268848
C       -7.92499453      -6.13109759      -7.13967078
C       -7.34199478      -7.30156478      -7.48519357
N       -7.81950739      -8.18312196      -8.43042211
O       -6.17879354      -7.76113207      -6.88420667
C       -5.46326506      -6.92887742      -6.06299260
C       -4.21300824      -7.39258132      -5.64598273
C       -3.42117347      -6.59611296      -4.82084194
O       -2.19671835      -7.04671570      -4.41339706
C       -3.87405026      -5.33577776      -4.42161987
C       -3.03307047      -4.47929393      -3.56094788
N       -3.35633559      -3.24814804      -3.31436246
C       -2.49890066      -2.49486854      -2.50066109
C       -1.13607388      -2.34362789      -2.78386133
C       -0.32386934      -1.54683261      -1.97159606
C       -0.88156424      -0.88156424      -0.88156424
C       -2.23939553      -1.00671360      -0.59740574
C       -3.04306118      -1.81074646      -1.41063830
C       -5.13315377      -4.88162823      -4.83843765
C       -5.94515267      -5.68532515      -5.65421208
C       -7.33744210      -5.24288095      -6.06619891
H       -7.21611103      -4.24521670      -6.51484669
C       -8.26269573      -5.13252666      -4.85098696
C       -8.76771049      -3.88065644      -4.46256011
C       -9.60018987      -3.76541532      -3.34654356
C       -9.93581533      -4.90020062      -2.61145158
Br     -11.05954846      -4.74172812      -1.09976244
C       -9.44655556      -6.15005902      -2.98062267
C       -8.61224067      -6.26629614      -4.09389435
H       -8.81485175      -8.12456101      -8.63447254
H       -7.49731323      -9.13433422      -8.27134836
H       -3.87477291      -8.36909755      -5.97863214
H       -2.04167935      -7.93520380      -4.77812555
H       -2.11630591      -4.93382113      -3.14238683
H       -0.70266247      -2.83944033      -3.64847988
H        0.73249143      -1.44508393      -2.20515619
H       -2.68438697      -0.48140868       0.24272032
H       -4.10554652      -1.90167401      -1.20099721
H       -5.48636644      -3.90471349      -4.51018219
H       -8.51448474      -2.98169325      -5.02153027
H       -9.97834602      -2.78754236      -3.05850079
H       -9.70479241      -7.03718399      -2.40812973
H       -8.23178140      -7.25080212      -4.36022689
N       -5.32718019       9.91211801       8.56816462
C       -5.65444981       8.95046939       8.02691555
C       -6.05422138       7.77578111       7.36576040
C       -7.37037111       7.47554490       7.28283712
N       -8.39674770       8.23414576       7.80215800
O       -7.83451181       6.32122045       6.66840003
C       -6.97332413       5.54953421       5.93227676
C       -7.54683020       4.51239867       5.19234342
C       -6.73645095       3.69356348       4.40811394
O       -7.29553681       2.67966941       3.68162490
C       -5.35793714       3.91706068       4.35645006
C       -4.49513129       3.06381010       3.51437089
N       -3.24587419       3.35192214       3.32104976
C       -2.49624140       2.50156531       2.49662359
C       -2.88602071       2.18883501       1.18870739
C       -2.08690175       1.37212031       0.38327596
C       -0.88156424       0.88156424       0.88156424
C       -0.47060834       1.19883827       2.17406827
C       -1.27878066       2.01053844       2.97512683
C       -4.78991728       4.95514676       5.10815560
C       -5.59650700       5.77276046       5.91542245
C       -4.99779390       6.86173866       6.78698941
H       -4.38064743       7.47897626       6.11655073
C       -4.10342100       6.26524590       7.87754245
C       -2.72175752       6.51833753       7.87083199
C       -1.89355740       5.96699415       8.85159721
C       -2.43980151       5.16028648       9.84737954
Br      -1.31707789       4.41244963      11.17151150
C       -3.80675269       4.89829875       9.87218582
C       -4.63512804       5.44621356       8.89108956
H       -8.14838283       8.86108888       8.56441358
H       -9.22964687       7.68231097       7.99103798
H       -8.62147776       4.36463205       5.23639279
H       -8.25633664       2.66498438       3.83368768
H       -4.96365663       2.17421534       3.05464191
H       -3.81238022       2.59109695       0.78710552
H       -2.40836045       1.13718686      -0.62779861
H        0.47346007       0.83102780       2.56550760
H       -0.95682815       2.27164135       3.97974823
H       -3.71252344       5.11333382       5.07540486
H       -2.27512708       7.14307019       7.09951099
H       -0.82576063       6.17061205       8.82801648
H       -4.23593124       4.26768129      10.64649360
H       -5.69971750       5.22119286       8.92190005
N        9.97762494      -5.35652716       8.47331072
C        9.03496393      -5.69230319       7.90456763
C        7.88346970      -6.10246565       7.20982754
C        7.33487480      -7.30735118       7.48652715
N        7.81056193      -8.20698298       8.41550655
O        6.21493296      -7.78689522       6.82230410
C        5.49880053      -6.95059554       6.00573903
C        4.28503126      -7.44497004       5.52157099
C        3.49429138      -6.64717744       4.69665954
O        2.30539279      -7.12786161       4.22357671
C        3.91143511      -5.35541690       4.36459587
C        3.07059244      -4.49816977       3.50455007
N        3.35362417      -3.24663669       3.31858523
C        2.49867182      -2.49494512       2.50081336
C        1.12101166      -2.40763794       2.73491350
C        0.30942542      -1.61081652       1.92205608
C        0.88156424      -0.88156424       0.88156424
C        2.25323046      -0.94297398       0.64731043
C        3.05654309      -1.74738869       1.46051416
C        5.13442676      -4.87023437       4.84855851
C        5.94594869      -5.67409499       5.66464622
C        7.30257490      -5.19528767       6.14865940
H        7.12430643      -4.22175604       6.63011195
C        8.26870013      -5.00096458       4.97654464
C        8.73782506      -3.71608359       4.65701838
C        9.60731090      -3.52441218       3.58042568
C       10.01603471      -4.61516722       2.81626560
Br      11.18980566      -4.35332012       1.35791324
C        9.56330020      -5.89666421       3.11727285
C        8.69212700      -6.08929091       4.19101325
H        8.79419113      -8.11841277       8.66128139
H        7.53300102      -9.16275630       8.20723849
H        3.97356600      -8.44628094       5.80265566
H        2.17209020      -8.03552101       4.54739749
H        2.18949507      -4.97050193       3.03251688
H        0.67485505      -2.95390760       3.56182004
H       -0.75835402      -1.55916185       2.11694087
H        2.70882899      -0.36779119      -0.15354485
H        4.12908578      -1.78895962       1.29017234
H        5.46066151      -3.86812556       4.57247506
H        8.42757009      -2.85058052       5.23955765
H        9.95686685      -2.52199537       3.34552694
H        9.87860510      -6.74961412       2.52188691
H        8.34137104      -7.09755122       4.40388816
