97
Properties=species:S:1:pos:R:3 pbc="F F F"
C        0.00000000       0.00000000       0.00000000
C        0.88172341       0.88172341      -0.88172341
C        2.23430227       1.02714413      -0.58176632
C        3.04048025       1.83374186      -1.38821452
C        2.49704681       2.50482937      -2.49414275
C        1.13485387       2.33952557      -2.78785760
C        0.32857781       1.53225232      -1.98229487
C        3.37476780       3.36125345      -3.37963496
N        3.93411676       2.59724669      -4.47659337
C        3.27075603       2.48460696      -5.66293510
O        2.20763013       3.00505470      -5.96085955
S        4.14431293       1.45982816      -6.77341303
C        5.49654542       1.20771785      -5.62457761
H        5.67452741       0.14787002      -5.43097972
C        5.13191350       1.93308618      -4.35371045
O        5.82365447       1.92797406      -3.33923055
H        2.67077363       0.51818167       0.27380701
H        4.09824676       1.93386315      -1.14722403
H        0.69055840       2.83832656      -3.64863627
H       -0.72533547       1.41798610      -2.22286317
H        4.18651439       3.79676704      -2.78439092
H        2.78941178       4.20042896      -3.77502784
C        6.69820619       1.80552725      -6.14633936
C        7.70459708       2.30619261      -6.58331482
Br       9.33184604       3.11572617      -7.28986719
C       -0.88172341      -0.88172341      -0.88172341
C       -2.23659165      -1.01851498      -0.58810609
C       -3.04277042      -1.82511411      -1.39455210
C       -2.49710275      -2.50481393      -2.49410225
C       -1.13254902      -2.34815724      -2.78153079
C       -0.32626402      -1.54088776      -1.97597323
C       -3.37467158      -3.36127933      -3.37970530
N       -3.92428056      -2.60012674      -4.48354951
C       -3.25416148      -2.49716760      -5.66696901
O       -2.19223919      -3.02470632      -5.95659888
S       -4.11653242      -1.47368257      -6.78733914
C       -5.47339693      -1.20850619      -5.64693775
H       -5.64682813      -0.14674447      -5.45980456
C       -5.11920398      -1.92909449      -4.37041168
O       -5.81618913      -1.91505786      -3.35961208
H       -2.67484453      -0.50280581       0.26250206
H       -4.10228945      -1.91845385      -1.15859064
H       -0.68639183      -2.85377330      -3.63735610
H        0.72947383      -1.43338117      -2.21160646
H       -4.19178266      -3.78942814      -2.78646154
H       -2.79166855      -4.20555672      -3.76764330
C       -6.67543774      -1.80276824      -6.17186680
C       -7.68214692      -2.30046271      -6.61149489
Br      -9.30991051      -3.10519258      -7.32233631
C       -0.88172341       0.88172341       0.88172341
C       -0.38696591       1.36548024       2.09076657
C       -1.19361537       2.17172842       2.89709284
C       -2.50134574       2.49231898       2.50235422
C       -2.98055853       2.00483592       1.27684260
C       -2.17392319       1.19942560       0.46977621
C       -3.36720411       3.38284378       3.36560832
N       -3.22014583       4.77948837       3.00832262
C       -4.01469585       5.34732610       2.05627615
O       -4.92205078       4.80929382       1.44219978
S       -3.57500348       7.01493686       1.78761379
C       -2.30097492       6.98026634       3.04759962
H       -1.32732744       7.27523571       2.65081401
C       -2.25803763       5.57292347       3.58774904
O       -1.46108160       5.19000833       4.43976915
H        0.62214005       1.12317859       2.41410975
H       -0.79273330       2.54955496       3.83704569
H       -3.98737385       2.24999539       0.94015201
H       -2.56254656       0.82801220      -0.47504496
H       -3.10249314       3.24427606       4.42090314
H       -4.41767772       3.08425234       3.26293851
C       -2.66092534       7.85911526       4.13003219
C       -2.96238382       8.59515123       5.03656947
Br      -3.44981668       9.78525915       6.50236357
C        0.88172341      -0.88172341       0.88172341
C        0.42833015      -1.27650883       2.13837374
C        1.23498269      -2.08277447       2.94467947
C        2.50185688      -2.49229236       2.50186970
C        2.93905737      -2.09379547       1.22938420
C        2.13233696      -1.28840367       0.42238437
C        3.36632660      -3.38288222       3.36644739
N        3.12984034      -4.78599184       3.09212464
C        3.84265400      -5.44293069       2.13271340
O        4.74203121      -4.98589646       1.44561672
S        3.30532950      -7.09616301       1.97606162
C        2.10376174      -6.92975337       3.29532576
H        1.09663252      -7.19205796       2.96468668
C        2.16106966      -5.49656946       3.76107101
O        1.43114917      -5.02899094       4.63071897
H       -0.54850623      -0.96462328       2.49903124
H        0.86621468      -2.39055998       3.92255927
H        3.91275214      -2.40908504       0.85568406
H        2.48829477      -0.98660625      -0.55938721
H        3.16567837      -3.17709808       4.42489590
H        4.42359942      -3.14636939       3.19489976
C        2.47598507      -7.77059283       4.40349488
C        2.78772212      -8.47479588       5.33158652
Br       3.29177456      -9.61343264       6.83223220
