102
Properties=species:S:1:pos:R:3 pbc="F F F"
C        1.79194766       1.79194766      -1.79194766
C        2.91425747       1.24616527      -2.41071940
C        3.72977894       2.04524857      -3.22835390
C        4.94939219       1.42920315      -3.86887785
C        5.50199147       2.28683043      -5.00170180
C        5.55124636       3.74103766      -4.56304961
N        4.20670102       4.20818422      -4.26710505
C        3.44075765       3.41546926      -3.39200951
C        2.28100214       3.93134535      -2.77714119
Br       1.79068953       5.75755925      -2.99367915
C        1.46574493       3.13104291      -1.97323074
H        3.15802954       0.19581845      -2.26688249
H        5.71689281       1.30712065      -3.09530101
H        4.70830771       0.43421547      -4.26055857
H        6.50033750       1.93495921      -5.28508807
H        4.85888151       2.18881831      -5.88699047
H        5.96707424       4.35430945      -5.36924734
H        6.19895580       3.86838357      -3.68776685
H        4.14131942       5.19860532      -4.03804930
H        0.58402271       3.54991901      -1.49716642
C       -1.79194766      -1.79194766      -1.79194766
C       -3.15233400      -1.51439343      -1.90441471
C       -3.97253625      -2.31440544      -2.71643972
C       -5.44590253      -1.99958354      -2.80198712
C       -6.11604638      -2.68986807      -3.98460925
C       -5.66383437      -4.13917096      -4.05232830
N       -4.22627377      -4.19341631      -4.26230022
C       -3.43079992      -3.42949903      -3.38793748
C       -2.04478524      -3.66646588      -3.27823756
Br      -1.22634804      -5.11834858      -4.19723131
C       -1.22964820      -2.86210299      -2.47826738
H       -3.58181076      -0.67140346      -1.36751625
H       -5.92045277      -2.32892530      -1.86993641
H       -5.59631439      -0.91733342      -2.88943393
H       -7.20567211      -2.62959860      -3.88511407
H       -5.84518332      -2.17369745      -4.91580952
H       -6.16062958      -4.64053764      -4.88946382
H       -5.93508698      -4.68119731      -3.13882193
H       -3.85102656      -5.13096268      -4.39598479
H       -0.16660692      -3.06868047      -2.39582075
C       -1.79194766       1.79194766       1.79194766
C       -1.31303950       3.02243286       2.23566978
C       -2.11632003       3.84474377       3.04231761
C       -1.56137986       5.16320054       3.52289279
C       -2.65089803       6.09090531       4.04872036
C       -3.59268857       5.31127764       4.95136741
N       -4.23810854       4.25510643       4.18877532
C       -3.39592199       3.40913808       3.44317635
C       -3.86416189       2.17232651       2.95300028
Br      -5.60129292       1.53791395       3.40272106
C       -3.06667676       1.36162658       2.14171523
H       -0.31609439       3.35258726       1.95204883
H       -0.83856972       4.95896728       4.32177747
H       -1.02686800       5.66697935       2.70923439
H       -2.19944006       6.92816036       4.59278436
H       -3.21308716       6.51573345       3.20586968
H       -4.36346007       5.98187623       5.34529474
H       -3.05781143       4.88777855       5.80951623
H       -4.94496517       3.73103244       4.70197644
H       -3.43993940       0.40612028       1.78504846
C        1.79194766      -1.79194766       1.79194766
C        1.44819268      -3.12619806       1.99675140
C        2.25386977      -3.94863688       2.80087476
C        1.84390204      -5.38443974       3.01913141
C        2.98216445      -6.23144449       3.57691476
C        3.67287877      -5.47974301       4.70271184
N        4.24701083      -4.24743279       4.18754668
C        3.39178385      -3.41591003       3.44054255
C        3.73013960      -2.06992352       3.18942556
Br       5.28071925      -1.29045171       3.97075698
C        2.93247098      -1.25742937       2.38011823
H        0.55655789      -3.53646993       1.52770266
H        1.00167075      -5.39645495       3.72118877
H        1.49994111      -5.82632691       2.07681373
H        2.59384930      -7.19155835       3.93497713
H        3.70542639      -6.44990728       2.77935661
H        4.47742823      -6.09623427       5.11696854
H        2.97461479      -5.26133113       5.51916030
H        4.79573254      -3.71867827       4.86356323
H        3.20232005      -0.21936759       2.20942050
C       -0.00445707       0.01189536      -1.78238275
H       -0.66409135       0.67374010      -2.43557963
H        0.65740317      -0.63156657      -2.45157240
C       -0.90989263      -0.90692880      -0.91072765
C        0.90977584       0.90977584      -0.90977584
C       -0.00465871       1.77757030       0.00794375
H       -0.66225468       2.44313916      -0.64384735
H        0.64322798       2.43503045       0.67728295
C       -1.78241447       0.00034974      -0.00472694
H       -2.45427497      -0.65498947       0.64260836
H       -2.43311707       0.67328779      -0.65473579
C       -0.91132561       0.90220522       0.91563759
C       -0.01476271      -0.02253852       1.78660255
H       -0.67934791      -0.69751639       2.42135241
H        0.63392994       0.61504881       2.47327442
C        0.01484550      -1.77751727      -0.01636693
H        0.67870853      -2.42144646      -0.68295456
H       -0.62264859      -2.45592969       0.64226336
C        1.78714474       0.01002794       0.00389507
H        2.44202412       0.67113390       0.66197326
H        2.45385902      -0.65136977      -0.64189061
C        0.91606151      -0.90478549       0.90901405
