186
Properties=species:S:1:pos:R:3 pbc="F F F"
C        7.00986373      -5.94226455      -2.30262527
C        6.41658610      -4.61648202      -2.67959001
C        6.91209600      -3.43648156      -2.11937006
C        6.36738125      -2.19847330      -2.47485376
C        5.30179159      -2.10490911      -3.38364990
N        4.82649149      -0.85116323      -3.84760985
C        5.50699672       0.32799246      -3.84439206
C        5.14024060       1.63348907      -3.52651637
N        6.17701807       2.52438723      -3.77072356
C        7.14642429       1.77079307      -4.23545911
C        8.45619930       2.17425649      -4.66828368
N        9.29273788       1.33287657      -5.21706768
C        8.86254015       0.02690961      -5.38361197
C        7.66323481      -0.42889353      -4.98327052
N        6.78869052       0.45411992      -4.36343978
C        3.85126892       2.10983976      -3.03855865
C        3.03294972       1.31442375      -2.22507436
C        1.79292596       1.79292596      -1.79292596
C        1.34934507       3.06469727      -2.15254966
C        2.16390634       3.87486951      -2.93984789
C        3.40481608       3.40458757      -3.36450747
O        4.15723278       4.27892868      -4.10678097
C        4.78076120      -3.30349921      -3.90457674
C        5.32946362      -4.54397938      -3.55744899
H        8.08645560      -5.84760641      -2.12412925
H        6.87971654      -6.67243838      -3.10771633
H        6.53145108      -6.32432969      -1.39604118
H        7.73629748      -3.46864892      -1.40920634
H        6.78576978      -1.30309378      -2.02074919
H        3.81204912      -0.85183266      -3.95694755
H        8.75910408       3.22434916      -4.53166673
H        9.56384352      -0.64133636      -5.87894057
H        7.34289160      -1.44912519      -5.13752725
H        3.36324690       0.33000185      -1.90315677
H        0.38564033       3.43693983      -1.81844173
H        1.84086592       4.87548510      -3.21602718
H        5.06245768       3.90167528      -4.15711069
H        4.92083041      -5.45767362      -3.98518985
C        3.68578212      -3.29057933      -4.83969912
C        2.76873713      -3.27975893      -5.62286412
Br       1.28595295      -3.26226325      -6.88917568
C        2.74720879      -8.69308126       2.57564802
C        1.66399186      -7.97201535       1.82832940
C        1.75668739      -7.79704424       0.44537235
C        0.74495488      -7.13312303      -0.25559357
C       -0.37688452      -6.60924875       0.40560089
N       -1.46715650      -6.04782742      -0.30795419
C       -1.79139764      -6.27794703      -1.61003656
C       -2.21147075      -5.44473260      -2.64404269
N       -2.51255674      -6.17078554      -3.78878657
C       -2.28682861      -7.41828185      -3.44756600
C       -2.45052068      -8.60174065      -4.24647814
N       -2.29557277      -9.79990496      -3.74720440
C       -1.97992278      -9.89142548      -2.40171346
C       -1.78813120      -8.83120656      -1.59827403
N       -1.91261668      -7.55705499      -2.13657854
C       -2.38726102      -3.99741983      -2.61498649
C       -1.58324296      -3.17456891      -1.81463595
C       -1.79292596      -1.79292596      -1.79292596
C       -2.79368466      -1.20657036      -2.56633697
C       -3.58321982      -2.01025961      -3.38514432
C       -3.37060570      -3.38691377      -3.41639164
O       -4.16879162      -4.09921043      -4.27494038
C       -0.43549506      -6.75053612       1.80419244
C        0.57143300      -7.42227833       2.50791210
H        3.17038513      -9.49686785       1.96350429
H        2.35345578      -9.15504059       3.48659031
H        3.54498296      -7.99566500       2.84751947
H        2.61259907      -8.18728119      -0.10217277
H        0.85222021      -7.02329875      -1.33234665
H       -1.85556521      -5.23835899       0.17676019
H       -2.71459524      -8.49055580      -5.30996893
H       -1.89640719     -10.90077619      -2.00426433
H       -1.55738629      -8.92678033      -0.54712705
H       -0.77556252      -3.59797693      -1.22286608
H       -2.95828185      -0.13347400      -2.54926605
H       -4.35729740      -1.56787456      -4.00720624
H       -3.77890642      -4.99778065      -4.34455658
H        0.49748896      -7.53395218       3.58811659
C       -1.55224203      -6.23707461       2.55441473
C       -2.48751762      -5.80705061       3.18272590
Br      -3.99977914      -5.11173815       4.19865192
C        1.97076141       8.65396245      -3.31297660
C        0.99011612       7.91780700      -2.44799680
C        1.18348263       7.84477880      -1.06631166
C        0.26708564       7.16692537      -0.25607803
C       -0.85626876       6.52764200      -0.80337838
N       -1.85710065       5.94764210       0.01819536
C       -2.11190618       6.24549047       1.32198458
C       -2.40618206       5.46011535       2.43394862
N       -2.68220312       6.24234973       3.54757601
C       -2.56532027       7.47533783       3.11201836
C       -2.75831042       8.69798240       3.84244666
N       -2.71867294       9.86642143       3.25758777
C       -2.49735523       9.88524021       1.89046630
C       -2.28516537       8.78678441       1.14566202
N       -2.28673251       7.54734434       1.77217337
C       -2.48343466       4.00592746       2.51030522
C       -1.67788411       3.18341283       1.71115088
C       -1.79292596       1.79292596       1.79292596
C       -2.69907297       1.19798615       2.66953287
C       -3.48769778       2.00362734       3.48729862
C       -3.36878042       3.38999285       3.41513785
O       -4.15716777       4.10682694       4.27894772
C       -1.01439000       6.56825472      -2.20080599
C       -0.10349172       7.25339545      -3.01395393
H        2.37613711       9.52355335      -2.78443781
H        1.48831268       9.02580938      -4.22250220
H        2.79548684       7.99229999      -3.59365057
H        2.04397492       8.32607536      -0.60524554
H        0.45075824       7.13861446       0.81556897
H       -2.21926806       5.08340473      -0.38550877
H       -2.94508483       8.64349593       4.92653921
H       -2.50927926      10.86811622       1.42405224
H       -2.12970290       8.82443309       0.07715767
H       -0.94104465       3.61620269       1.03915819
H       -2.79016986       0.11789444       2.73295760
H       -4.18782738       1.55619356       4.18835727
H       -3.82638922       5.03129121       4.26356322
H       -0.25434091       7.28545545      -4.09144973
C       -2.13912331       5.93353740      -2.83775881
C       -3.08108747       5.40196164      -3.37120679
Br      -4.60416383       4.54244860      -4.23374706
C        8.43756187       4.22472992      -0.84260750
C        7.70471239       3.20965058      -0.01536772
C        7.78063803       1.85155502      -0.33409851
C        7.10597318       0.90194679       0.43973532
C        6.32233068       1.28219710       1.54039881
N        5.73844822       0.32180480       2.40629468
C        6.13580923      -0.96949678       2.57407522
C        5.43728892      -2.16842826       2.69452886
N        6.29504825      -3.23109626       2.94598435
C        7.48643794      -2.68093592       2.98530260
C        8.75166351      -3.31743803       3.22963793
N        9.85811767      -2.63218325       3.35238122
C        9.76584403      -1.25375771       3.25345999
C        8.62407061      -0.59038354       3.00315764
N        7.45448031      -1.31948651       2.83228340
C        3.99578805      -2.37782536       2.62605393
C        3.17402387      -1.58009131       1.81833264
C        1.79292596      -1.79292596       1.79292596
C        1.20769287      -2.80017550       2.55872362
C        2.01596660      -3.61622004       3.34643711
C        3.39422953      -3.41290855       3.36677304
O        4.11884121      -4.28230506       4.14179616
C        6.21582277       2.65644360       1.82245957
C        6.89695902       3.60905136       1.05502557
H        9.38543556       3.81473373      -1.20772341
H        8.67780416       5.11303860      -0.24977106
H        7.82633749       4.52410626      -1.69906866
H        8.37656688       1.51806918      -1.18164281
H        7.19588298      -0.14573481       0.16180740
H        4.81152208       0.61258628       2.71822823
H        8.78462102      -4.41500470       3.31549424
H       10.69508062      -0.70698846       3.39937863
H        8.57317986       0.48728113       2.94539493
H        3.60323286      -0.80595454       1.18721813
H        0.13473435      -2.96556972       2.54071783
H        1.57819203      -4.41695736       3.93722881
H        5.06286469      -4.15524985       3.90312911
H        6.81306149       4.66598370       1.30126884
C        5.42805282       3.12586404       2.93271313
C        4.76829549       3.51900365       3.86255048
Br       3.70152368       4.15467715       5.36601885
C       -0.00445707       0.01189536      -1.78238275
H       -0.66409135       0.67374010      -2.43557963
H        0.65740317      -0.63156657      -2.45157240
C       -0.90989263      -0.90692880      -0.91072765
C        0.90977584       0.90977584      -0.90977584
C       -0.00465871       1.77757030       0.00794375
H       -0.66225468       2.44313916      -0.64384735
H        0.64322798       2.43503045       0.67728295
C       -1.78241447       0.00034974      -0.00472694
H       -2.45427497      -0.65498947       0.64260836
H       -2.43311707       0.67328779      -0.65473579
C       -0.91132561       0.90220522       0.91563759
C       -0.01476271      -0.02253852       1.78660255
H       -0.67934791      -0.69751639       2.42135241
H        0.63392994       0.61504881       2.47327442
C        0.01484550      -1.77751727      -0.01636693
H        0.67870853      -2.42144646      -0.68295456
H       -0.62264859      -2.45592969       0.64226336
C        1.78714474       0.01002794       0.00389507
H        2.44202412       0.67113390       0.66197326
H        2.45385902      -0.65136977      -0.64189061
C        0.91606151      -0.90478549       0.90901405
