178
Properties=species:S:1:pos:R:3 pbc="F F F"
C        7.00986373      -5.94226455      -2.30262527
C        6.41658610      -4.61648202      -2.67959001
C        6.91209600      -3.43648156      -2.11937006
C        6.36738125      -2.19847330      -2.47485376
C        5.30179159      -2.10490911      -3.38364990
N        4.82649149      -0.85116323      -3.84760985
C        5.50699672       0.32799246      -3.84439206
C        5.14024060       1.63348907      -3.52651637
N        6.17701807       2.52438723      -3.77072356
C        7.14642429       1.77079307      -4.23545911
C        8.45619930       2.17425649      -4.66828368
N        9.29273788       1.33287657      -5.21706768
C        8.86254015       0.02690961      -5.38361197
C        7.66323481      -0.42889353      -4.98327052
N        6.78869052       0.45411992      -4.36343978
C        3.85126892       2.10983976      -3.03855865
C        3.03294972       1.31442375      -2.22507436
C        1.79292596       1.79292596      -1.79292596
C        1.34934507       3.06469727      -2.15254966
C        2.16390634       3.87486951      -2.93984789
C        3.40481608       3.40458757      -3.36450747
O        4.15723278       4.27892868      -4.10678097
C        4.78076120      -3.30349921      -3.90457674
Br       3.33437769      -3.28643303      -5.13980179
C        5.32946362      -4.54397938      -3.55744899
H        8.08645560      -5.84760641      -2.12412925
H        6.87971654      -6.67243838      -3.10771633
H        6.53145108      -6.32432969      -1.39604118
H        7.73629748      -3.46864892      -1.40920634
H        6.78576978      -1.30309378      -2.02074919
H        3.81204912      -0.85183266      -3.95694755
H        8.75910408       3.22434916      -4.53166673
H        9.56384352      -0.64133636      -5.87894057
H        7.34289160      -1.44912519      -5.13752725
H        3.36324690       0.33000185      -1.90315677
H        0.38564033       3.43693983      -1.81844173
H        1.84086592       4.87548510      -3.21602718
H        5.06245768       3.90167528      -4.15711069
H        4.92083041      -5.45767362      -3.98518985
C       -1.81156036      -7.30827962       5.74961553
C       -2.26089552      -6.68127078       4.46247221
C       -1.72848518      -7.11087636       3.24437704
C       -2.15119942      -6.53478398       2.04222168
C       -3.10173148      -5.50217583       2.02337492
N       -3.63080344      -4.99898572       0.80685105
C       -3.64772333      -5.63476081      -0.39689710
C       -3.39404514      -5.20799786      -1.69820304
N       -3.63377481      -6.21971427      -2.61863978
C       -4.03301171      -7.23348867      -1.88617608
C       -4.43225442      -8.54310125      -2.32338381
N       -4.91696339      -9.43067605      -1.49504269
C       -5.04900066      -9.05582176      -0.16823931
C       -4.67609515      -7.85970684       0.31819020
N       -4.12344715      -6.92990928      -0.55289378
C       -2.97279050      -3.88448068      -2.14239616
C       -2.16017952      -3.06549971      -1.34676859
C       -1.79292596      -1.79292596      -1.79292596
C       -2.21732918      -1.31673303      -3.03252979
C       -3.00449757      -2.13040896      -3.84371722
C       -3.36455610      -3.40327541      -3.40607960
O       -4.11152977      -4.15079022      -4.28062244
C       -3.59513468      -5.04626397       3.25955991
Br      -4.88278292      -3.64878043       3.34381690
C       -3.18052192      -5.62675095       4.46433964
H       -1.59711477      -8.37297523       5.60711157
H       -2.59225949      -7.23628031       6.51354530
H       -0.90928888      -6.80984616       6.11597247
H       -0.98759530      -7.90780175       3.21854215
H       -1.71666897      -6.90198922       1.11523300
H       -3.77750136      -3.99021498       0.85055232
H       -4.32497899      -8.80146323      -3.38867775
H       -5.49198883      -9.79989239       0.49043351
H       -4.80277819      -7.58350411       1.35498863
H       -1.78866428      -3.41938540      -0.38835585
H       -1.93366695      -0.32778495      -3.37956999
H       -3.33069345      -1.78141264      -4.82027212
H       -4.11378958      -5.07062117      -3.93683291
H       -3.58766132      -5.26895171       5.40826640
C        1.96524771       8.65334175      -3.31786960
C        0.98534019       7.91713337      -2.45209909
C        1.17937666       7.84483087      -1.07046971
C        0.26366535       7.16692887      -0.25950181
C       -0.85964631       6.52687609      -0.80599001
N       -1.85983236       5.94679392       0.01631182
C       -2.11417461       6.24512562       1.32008100
C       -2.40757643       5.46012750       2.43254211
N       -2.68344497       6.24274771       3.54593618
C       -2.56733087       7.47558869       3.10975691
C       -2.76054792       8.69848067       3.83971088
N       -2.72171819       9.86666823       3.25429571
C       -2.50103883       9.88495900       1.88706389
C       -2.28868591       8.78625798       1.14266790
N       -2.28939341       7.54710613       1.76975067
C       -2.48412380       4.00593952       2.50960402
C       -1.67856249       3.18342784       1.71045749
C       -1.79292596       1.79292596       1.79292596
C       -2.69839493       1.19797286       2.67022421
C       -3.48701415       2.00362747       3.48798212
C       -3.36876884       3.39001420       3.41512807
O       -4.15708849       4.10688306       4.27897087
C       -1.01842982       6.56677208      -2.20336317
Br      -2.50411726       5.72728737      -3.04365819
C       -0.10822193       7.25195751      -3.01724620
H        2.37046607       9.52336269      -2.78991820
H        1.48220886       9.02454732      -4.22734396
H        2.79014858       7.99192993      -3.59861878
H        2.03985935       8.32673608      -0.61002183
H        0.44784452       7.13919633       0.81207337
H       -2.22178741       5.08220392      -0.38682731
H       -2.94679791       8.64440771       4.92391435
H       -2.51363056      10.86761440       1.42020275
H       -2.13373293       8.82348592       0.07407481
H       -0.94223210       3.61624733       1.03792611
H       -2.78896491       0.11786864       2.73418834
H       -4.18661456       1.55619436       4.18956928
H       -3.82674306       5.03149239       4.26300820
H       -0.25958210       7.28345156      -4.09468703
C        6.23757380       6.26754515       3.40019580
C        5.73633955       4.86916673       3.61252127
C        6.37970146       3.78865978       3.00394282
C        5.92058242       2.48331278       3.20649207
C        4.79667124       2.22171583       4.00557698
N        4.39896044       0.89674035       4.32071802
C        5.18017038      -0.21757100       4.28163986
C        4.95898214      -1.51507498       3.82618892
N        6.04774407      -2.33615844       4.08822635
C        6.90444226      -1.55016287       4.69807133
C        8.20510671      -1.88188673       5.21174603
N        8.91517103      -1.02717466       5.90033644
C        8.35767338       0.21893973       6.13432808
C        7.15931477       0.60877517       5.66707220
N        6.42107939      -0.28402614       4.90114469
C        3.76218814      -2.05002129       3.18745791
C        2.94552085      -1.25486839       2.37205859
C        1.79292596      -1.79292596       1.79292596
C        1.43687331      -3.12385830       2.00586038
C        2.25327901      -3.93162439       2.79372034
C        3.40810309      -3.40098376       3.36482427
O        4.17225790      -4.27351606       4.09716846
C        4.12953888       3.32209559       4.57439544
Br       2.59402236       3.07598742       5.66971150
C        4.59170936       4.62947601       4.38069988
H        7.32931832       6.27789083       3.31155095
H        5.97701642       6.90962767       4.24760575
H        5.80291206       6.68862152       2.48887204
H        7.25320266       3.95174003       2.37539226
H        6.45322748       1.66950243       2.71970014
H        3.38298760       0.80438654       4.33856296
H        8.61090970      -2.88714053       5.01706974
H        8.95337501       0.89548299       6.74355569
H        6.73742587       1.58138003       5.87524782
H        3.21173618      -0.22182877       2.16284057
H        0.54100511      -3.54253850       1.55747829
H        1.99946825      -4.97605135       2.95685861
H        5.03291539      -3.82927731       4.25905094
H        4.06927251       5.46462428       4.84369840
C       -0.00445707       0.01189536      -1.78238275
H       -0.66409135       0.67374010      -2.43557963
H        0.65740317      -0.63156657      -2.45157240
C       -0.90989263      -0.90692880      -0.91072765
C        0.90977584       0.90977584      -0.90977584
C       -0.00465871       1.77757030       0.00794375
H       -0.66225468       2.44313916      -0.64384735
H        0.64322798       2.43503045       0.67728295
C       -1.78241447       0.00034974      -0.00472694
H       -2.45427497      -0.65498947       0.64260836
H       -2.43311707       0.67328779      -0.65473579
C       -0.91132561       0.90220522       0.91563759
C       -0.01476271      -0.02253852       1.78660255
H       -0.67934791      -0.69751639       2.42135241
H        0.63392994       0.61504881       2.47327442
C        0.01484550      -1.77751727      -0.01636693
H        0.67870853      -2.42144646      -0.68295456
H       -0.62264859      -2.45592969       0.64226336
C        1.78714474       0.01002794       0.00389507
H        2.44202412       0.67113390       0.66197326
H        2.45385902      -0.65136977      -0.64189061
C        0.91606151      -0.90478549       0.90901405
