158
Properties=species:S:1:pos:R:3 pbc="F F F"
C        1.79211140       1.79211140      -1.79211140
C        2.17347020       3.05528625      -1.34159483
C        2.97930955       3.86227961      -2.14447209
C        3.40208764       3.40357188      -3.39387066
C        3.01862735       2.13323659      -3.84369143
C        2.20793516       1.32453647      -3.03839521
C        3.48211918       1.67317841      -5.16102826
N        4.22087955       2.32811958      -6.00437656
N        4.37464368       1.45612230      -7.04228994
C        5.31509529       1.59239011      -8.03969130
O        5.55005934       0.70471679      -8.85810939
C        6.04953138       2.90712946      -8.06176381
C        3.60307669       0.25206598      -6.83219401
H        4.27635521      -0.61289952      -6.85573962
O        3.08283401       0.42318257      -5.51353115
C        2.43969683       0.08288199      -7.78479834
C        2.04289310      -1.22888894      -8.11481277
C        0.95622006      -1.45648821      -8.96148269
Br       0.45001217      -3.22910825      -9.37993790
C        0.23902598      -0.39019742      -9.49267716
C        0.60869536       0.91277250      -9.16626690
C        1.69199586       1.14582723      -8.31701550
O        1.94657479       2.46286803      -8.05086152
H        1.84866721       3.41900846      -0.36977399
H        3.27829992       4.84870364      -1.79752769
H        4.03153596       4.04334753      -4.00995083
H        1.89945261       0.33802614      -3.37451178
H        5.33734024       3.73509848      -8.11442966
H        6.69191456       2.94958315      -8.94620996
H        6.67360572       3.00202643      -7.16939659
H        2.58605754      -2.07881785      -7.70560786
H       -0.60645539      -0.55870435     -10.15374631
H        0.05063637       1.75299684      -9.57191769
H        2.75578219       2.54883486      -7.51235381
C       -1.79211140      -1.79211140      -1.79211140
C       -1.31045526      -3.02242565      -2.23747038
C       -2.11388296      -3.82999988      -3.04217841
C       -3.39596943      -3.40578665      -3.39777410
C       -3.87817088      -2.16962165      -2.94776285
C       -3.07050846      -1.35842456      -2.14193382
C       -5.23361222      -1.74977394      -3.33293970
N       -6.07186840      -2.39934156      -4.08216573
N       -7.17236077      -1.59338189      -4.10731327
C       -8.41959331      -1.99328856      -4.53429483
O       -9.42774195      -1.30583183      -4.37931174
C       -8.47321917      -3.34132515      -5.20388033
C       -6.92910499      -0.35433304      -3.40389866
H       -7.66994123      -0.24630142      -2.60295265
O       -5.63216946      -0.54837777      -2.83900050
C       -6.88288682       0.86887641      -4.29336675
C       -7.28823358       2.10115154      -3.74173491
C       -7.23871457       3.27447036      -4.49697032
Br      -7.78710336       4.90997563      -3.72371409
C       -6.78203187       3.25065476      -5.81012861
C       -6.36448387       2.04385958      -6.36711046
C       -6.40823193       0.86845105      -5.61505771
O       -5.95259360      -0.24863296      -6.25907777
H       -0.31352733      -3.35965316      -1.96426917
H       -1.74185319      -4.78995212      -3.39272594
H       -4.01282908      -4.04638486      -4.02562039
H       -3.42899963      -0.39552542      -1.78746548
H       -7.77162646      -3.37334922      -6.04189271
H       -9.48106099      -3.51399435      -5.59265233
H       -8.23561940      -4.12717729      -4.48223206
H       -7.64348568       2.14437340      -2.71373528
H       -6.74223669       4.15876142      -6.40511130
H       -6.00037062       2.01594264      -7.39112292
H       -6.08023355      -1.03756412      -5.69917319
C       -1.79211140       1.79211140       1.79211140
C       -3.09950598       1.39755982       2.07328547
C       -3.90666362       2.20051676       2.87888088
C       -3.40403347       3.39398826       3.40150846
C       -2.08941597       3.78753452       3.11860488
C       -1.28040255       2.98233976       2.30812454
C       -1.58403353       5.04631742       3.68597491
N       -2.23332231       5.88425849       4.43579488
N       -1.31463047       6.85735798       4.70106748
C       -1.45042411       7.80612982       5.69062279
O       -0.53346678       8.55493151       6.02448724
C       -2.80363042       7.86559771       6.34919652
C       -0.08016979       6.61928706       3.98787984
H        0.74261413       6.55241810       4.70939134
O       -0.29425975       5.34500361       3.38028437
C        0.21260437       7.62450646       2.89547507
C        1.56251450       7.89691989       2.59441156
C        1.90286702       8.78869371       1.57538785
Br       3.72365659       9.12770214       1.19679627
C        0.91360032       9.42301817       0.83208788
C       -0.42570008       9.15520758       1.10682710
C       -0.77143282       8.26138125       2.12202452
O       -2.11440191       8.06100415       2.28489827
H       -3.49761238       0.46942803       1.67040925
H       -4.92741406       1.89719194       3.09992525
H       -4.04453292       4.01073631       4.02956510
H       -0.25960938       3.27540782       2.07697334
H       -3.58287279       8.00839838       5.59559721
H       -2.83439531       8.71308070       7.04023166
H       -2.98647030       6.94656449       6.91199396
H        2.35357176       7.40708126       3.15933805
H        1.16999570      10.11968874       0.03889352
H       -1.20639088       9.64176574       0.52739429
H       -2.27939491       7.48356333       3.05401261
C        1.79211140      -1.79211140       1.79211140
C        2.87014101      -2.47265474       1.22755553
C        3.67747039      -3.27795110       2.03063976
C        3.40536455      -3.39919078       3.39497485
C        2.32227596      -2.71315011       3.96012930
C        1.51091178      -1.90676289       3.15319217
C        2.06149693      -2.85461777       5.40021115
N        2.72616018      -3.57766779       6.24954771
N        2.09531257      -3.34174730       7.43599606
C        2.61703268      -3.65932915       8.67081487
O        2.11188275      -3.27615641       9.72484636
C        3.86084334      -4.50838211       8.64919920
C        0.93468457      -2.50000253       7.25264959
H        1.04120772      -1.60340871       7.87457887
O        1.00577964      -2.14138912       5.87237897
C       -0.38594904      -3.19730204       7.49602416
C       -1.46352999      -2.42206016       7.97028677
C       -2.71847979      -2.99552917       8.18416516
Br      -4.14184972      -1.92495226       8.81773927
C       -2.93138555      -4.34544648       7.92744479
C       -1.88128248      -5.12373481       7.44528242
C       -0.62554574      -4.55443733       7.22594699
O        0.31976823      -5.40970640       6.73082970
H        3.08852525      -2.38270994       0.16621448
H        4.51876916      -3.81145593       1.59430616
H        4.04409111      -4.03033438       4.01040884
H        0.66522508      -1.37071708       3.57604837
H        3.68082542      -5.42504254       8.08100043
H        4.12924021      -4.78565352       9.67281394
H        4.68906240      -3.94744822       8.20851813
H       -1.32129362      -1.36193998       8.17220120
H       -3.90423264      -4.79973466       8.09308455
H       -2.03932518      -6.17882057       7.23605552
H        1.18423105      -4.96090703       6.67183277
C       -0.00445707       0.01189536      -1.78238275
H       -0.66409135       0.67374010      -2.43557963
H        0.65740317      -0.63156657      -2.45157240
C       -0.90989263      -0.90692880      -0.91072765
C        0.90977584       0.90977584      -0.90977584
C       -0.00465871       1.77757030       0.00794375
H       -0.66225468       2.44313916      -0.64384735
H        0.64322798       2.43503045       0.67728295
C       -1.78241447       0.00034974      -0.00472694
H       -2.45427497      -0.65498947       0.64260836
H       -2.43311707       0.67328779      -0.65473579
C       -0.91132561       0.90220522       0.91563759
C       -0.01476271      -0.02253852       1.78660255
H       -0.67934791      -0.69751639       2.42135241
H        0.63392994       0.61504881       2.47327442
C        0.01484550      -1.77751727      -0.01636693
H        0.67870853      -2.42144646      -0.68295456
H       -0.62264859      -2.45592969       0.64226336
C        1.78714474       0.01002794       0.00389507
H        2.44202412       0.67113390       0.66197326
H        2.45385902      -0.65136977      -0.64189061
C        0.91606151      -0.90478549       0.90901405
