145
Properties=species:S:1:pos:R:3 pbc="F F F"
C        0.00000000       0.00000000       0.00000000
C        0.88220738       0.88220738      -0.88220738
C        1.26356618       2.14538222      -0.43169081
C        2.06940553       2.95237559      -1.23456807
C        2.49218362       2.49366785      -2.48396663
C        2.10872332       1.22333257      -2.93378741
C        1.29803114       0.41463245      -2.12849119
C        2.57221515       0.76327439      -4.25112424
N        3.31097553       1.41821555      -5.09447253
N        3.46473966       0.54621827      -6.13238592
C        4.40519127       0.68248609      -7.12978728
O        4.64015532      -0.20518723      -7.94820536
C        5.13962736       1.99722544      -7.15185978
C        2.69317267      -0.65783805      -5.92228999
H        3.36645119      -1.52280355      -5.94583559
O        2.17292998      -0.48672146      -4.60362713
C        1.52979281      -0.82702204      -6.87489432
C        1.13298908      -2.13879296      -7.20490875
C        0.04631603      -2.36639224      -8.05157867
C       -0.67087804      -1.30010145      -8.58277314
C       -0.30120867       0.00286848      -8.25636287
C        0.78209183       0.23592321      -7.40711147
O        1.03667077       1.55296400      -7.14095749
H        0.93876318       2.50910444       0.54013003
H        2.36839590       3.93879961      -0.88762367
H        3.12163194       3.13344351      -3.10004681
H        0.98954859      -0.57187788      -2.46460776
H        4.42743622       2.82519446      -7.20452564
H        5.78201054       2.03967913      -8.03630593
H        5.76370169       2.09212241      -6.25949257
H        1.67615351      -2.98872187      -6.79570384
H       -1.51635942      -1.46860838      -9.24384229
H       -0.85926766       0.84309282      -8.66201367
H        1.84587817       1.63893084      -6.60244978
C       -0.33928883      -3.71668907      -8.37033775
C       -0.66223290      -4.84756267      -8.63729849
Br      -1.18440616      -6.67608963      -9.06895141
C       -0.88220738      -0.88220738      -0.88220738
C       -0.31199782      -1.94127217      -1.58736922
C       -1.11505219      -2.74856755      -2.39272944
C       -2.48497958      -2.49539522      -2.48944331
C       -3.05577981      -1.43136376      -1.77869974
C       -2.24891712      -0.61999237      -0.97224529
C       -4.50157432      -1.19036188      -1.89467759
N       -5.35175417      -1.85695276      -2.61495669
N       -6.54377785      -1.24775667      -2.35180934
C       -7.77534061      -1.78333523      -2.65878880
O       -8.83086815      -1.29999991      -2.25230539
C       -7.74802721      -3.01385778      -3.52682759
C       -6.36504414      -0.09718173      -1.49539874
H       -6.97165018      -0.22649748      -0.59133557
O       -4.97858807      -0.15269190      -1.15855569
C       -6.63865502       1.22987616      -2.16888622
C       -7.11714950       2.28844705      -1.37040241
C       -7.35841285       3.54843400      -1.92152361
C       -7.12539368       3.78534138      -3.27174134
C       -6.63945774       2.75440739      -4.07297234
C       -6.39279008       1.49377870      -3.52611514
O       -5.89663391       0.56895602      -4.40291437
H        0.75372753      -2.14486091      -1.51660421
H       -0.67434194      -3.57509456      -2.94538268
H       -3.10030390      -3.13388191      -3.12093645
H       -2.67618002       0.21108794      -0.41718638
H       -7.19654120      -2.81157876      -4.44903635
H       -8.77160548      -3.29357069      -3.79281942
H       -7.28657488      -3.84358525      -2.98515655
H       -7.30082355       2.12735137      -0.30966331
H       -7.31241002       4.76224104      -3.70870551
H       -6.44863259       2.93134150      -5.12854774
H       -5.81793796      -0.30111857      -3.96820226
C       -7.84475832       4.61294912      -1.08255065
C       -8.25207266       5.50448054      -0.37991080
Br      -8.91066549       6.94601144       0.75619842
C       -0.88220738       0.88220738       0.88220738
C       -1.71778336       1.83005760       0.29279824
C       -2.52464258       2.63607467       1.09563193
C       -2.49449620       2.49108621       2.48423570
C       -1.65497746       1.53687163       3.07399420
C       -0.84365922       0.72964800       2.26784756
C       -1.64670686       1.40182634       4.53808057
N       -2.33649808       2.09441669       5.39274885
N       -1.98086657       1.56408923       6.59838805
C       -2.66643887       1.77681140       7.77421436
O       -2.43114752       1.14748692       8.80453901
C       -3.73723867       2.83442342       7.71705048
C       -0.95167399       0.56085931       6.44509131
H       -1.30970806      -0.38611619       6.86589136
O       -0.82075026       0.44076561       5.02831979
C        0.39312131       0.95495255       7.01583385
C        1.23025813      -0.07065582       7.50001882
C        2.49752254       0.22004005       8.00898495
C        2.96164064       1.53036192       8.04307236
C        2.15310296       2.55506492       7.55606073
C        0.88673476       2.26941130       7.04244997
O        0.19424842       3.35141233       6.57342835
H       -1.74706401       1.94832941      -0.78765583
H       -3.17714223       3.37745466       0.64022229
H       -3.13008743       3.12607814       3.09895669
H       -0.18480055      -0.01291396       2.71039187
H       -3.31472440       3.77889728       7.36353464
H       -4.14415616       2.99395776       8.71988168
H       -4.54648075       2.51211924       7.05671668
H        0.88994107      -1.10435279       7.47742934
H        3.94557740       1.76517811       8.43927378
H        2.50932848       3.58208636       7.57308095
H       -0.70342409       3.08525600       6.29857870
C        3.33332144      -0.84718185       8.49486314
C        4.03330301      -1.74098020       8.90178612
Br       5.16511401      -3.18617654       9.55974617
C        0.88220738      -0.88220738       0.88220738
C        0.29077359      -1.76270372       1.78716189
C        1.09363537      -2.56965502       2.59305880
C        2.48434412      -2.49469295       2.49078104
C        3.07619412      -1.61005598       1.57959321
C        2.26992355      -0.79870992       0.77252130
C        4.54268641      -1.55504830       1.48887908
N        5.39712856      -2.24011625       2.18641881
N        6.60649299      -1.83371596       1.70313490
C        7.79567654      -2.49079254       1.93099556
O        8.83638077      -2.20676535       1.34002733
C        7.73988578      -3.59408436       2.95474243
C        6.45167158      -0.77976457       0.72618846
H        6.91046685      -1.09677456      -0.21775817
O        5.03571127      -0.68665764       0.56746674
C        6.97003435       0.56865724       1.17628798
C        7.45855652       1.44998038       0.19052872
C        7.92054033       2.72224342       0.53320555
C        7.90245363       3.14759505       1.85693506
C        7.41027475       2.29479077       2.84253870
C        6.94347645       1.02313629       2.50478635
O        6.46411575       0.28508531       3.55156182
H       -0.79130256      -1.82701368       1.87202647
H        0.63660527      -3.25712743       3.30108648
H        3.09910087      -3.13087470       3.12514669
H        2.71394307      -0.10522368       0.06311170
H        7.34645212      -3.21061376       3.90009044
H        8.74940765      -3.97619698       3.13239097
H        7.11383256      -4.41219064       2.58929348
H        7.47634731       1.14034849      -0.85286334
H        8.26191017       4.13516915       2.13213347
H        7.38663643       2.62035527       3.87955767
H        6.22422758      -0.61182063       3.25121057
C        8.41200774       3.60352897      -0.49411892
C        8.82361169       4.34160562      -1.35450316
Br       9.48914047       5.53501313      -2.74567171
