146
Properties=species:S:1:pos:R:3 pbc="F F F"
C        1.79143036       1.79143036      -1.79143036
C        1.23304521       2.88354836      -2.45752793
C        2.03003664       3.68931741      -3.28136313
C        3.38482936       3.40071577      -3.44325889
N        4.26847426       4.13065934      -4.26615362
C        3.97731307       5.21003120      -5.07575701
O        2.86437275       5.69037904      -5.24592481
C        5.11805259       5.69384821      -5.83166755
C        5.05551655       6.01927637      -7.17498737
C        3.97635467       6.02980185      -8.18370894
O        6.29440273       6.33589302      -7.62347358
N        7.19379627       6.24765064      -6.58671099
C        6.48383075       5.92167571      -5.49668401
C        7.17234402       5.85623078      -4.15930398
C        8.54945317       5.84129839      -4.01455752
C        8.95615836       5.76928788      -2.64724022
C        7.86958362       5.76849605      -1.81189800
Br       7.99749941       5.69470398       0.05514980
S        6.39558350       5.84498092      -2.63460658
C        3.92341756       2.30619638      -2.74970051
F        5.22815286       2.02034121      -2.88708885
C        3.14230805       1.49829269      -1.92956430
H        0.17671591       3.11878384      -2.34774617
H        1.55749064       4.53046061      -3.78011339
H        5.22421812       3.79017756      -4.25979453
H        3.71631209       5.00601877      -8.46959233
H        4.28382587       6.56748531      -9.08603610
H        3.07953400       6.51910655      -7.79514581
H        9.23993714       5.85979238      -4.85008784
H        9.98726093       5.72631079      -2.31395379
H        3.59724057       0.65649768      -1.41852993
C       -1.79143036      -1.79143036      -1.79143036
C       -3.00535823      -1.29730802      -2.27145525
C       -3.82897331      -2.10371441      -3.06802945
C       -3.44134309      -3.40626297      -3.38119796
N       -4.20501037      -4.30769937      -4.15257748
C       -5.45657295      -4.10738023      -4.69914810
O       -6.14000303      -3.10157929      -4.55909428
C       -5.97863735      -5.26829778      -5.39663322
C       -7.27841683      -5.71979682      -5.25156665
C       -8.45163222      -5.25403113      -4.48420212
O       -7.43715094      -6.87538947      -5.94122893
N       -6.25805133      -7.19928332      -6.57082325
C       -5.39795847      -6.20753510      -6.29669690
C       -4.03635220      -6.21223713      -6.93928944
C       -3.50494728      -7.31687271      -7.58348910
C       -2.19741409      -7.07175757      -8.10351480
C       -1.80789014      -5.78010081      -7.86198672
Br      -0.15829491      -5.07667572      -8.40208296
S       -2.96854244      -4.87807105      -7.02855751
C       -2.20889846      -3.87208645      -2.89832955
F       -1.81638714      -5.12055354      -3.19864225
C       -1.38282000      -3.08138853      -2.10595651
H       -3.32606362      -0.28606977      -2.03111253
H       -4.76426960      -1.68084042      -3.42295462
H       -3.76848161      -5.21277207      -4.29293654
H       -8.31255209      -5.46072814      -3.41864297
H       -9.36501336      -5.75970781      -4.81262610
H       -8.60330436      -4.17908684      -4.61139515
H       -4.01824246      -8.26839718      -7.66317771
H       -1.59509305      -7.80776905      -8.62466341
H       -0.44198750      -3.48407220      -1.74620848
C       -1.79143036       1.79143036       1.79143036
C       -1.20290127       2.72249029       2.64872994
C       -2.00230483       3.52512303       3.47328932
C       -3.39044074       3.39393543       3.44442785
N       -4.28363374       4.13290328       4.24875020
C       -3.97806821       5.06911946       5.21591362
O       -2.84881691       5.38265917       5.56920052
C       -5.14377809       5.60554294       5.89424732
C       -5.21561370       5.76774901       7.26641758
C       -4.27843225       5.52847639       8.38295683
O       -6.45790916       6.18626799       7.60959219
N       -7.22307638       6.32934169       6.47573983
C       -6.42196754       6.04045557       5.43976736
C       -6.93869851       6.21302528       4.03615498
C       -8.27934583       6.38877483       3.73718843
C       -8.51527354       6.52257498       2.33483795
C       -7.33873752       6.47798365       1.63325650
Br      -7.23686089       6.63078891      -0.23059621
S       -5.98147021       6.27462218       2.61907862
C       -3.95625268       2.46108306       2.56197872
F       -5.29164297       2.32901696       2.51492299
C       -3.17320978       1.65794108       1.73901418
H       -0.12151020       2.83299902       2.68873670
H       -1.50534756       4.23844595       4.12427112
H       -5.26299386       3.91895957       4.09223679
H       -4.17309983       4.45447242       8.56435094
H       -4.63535316       5.99614533       9.30584878
H       -3.29049281       5.94083836       8.16245519
H       -9.06353134       6.40067762       4.48560839
H       -9.49418465       6.64804639       1.88529446
H       -3.65132596       0.94312462       1.07781760
C        1.79143036      -1.79143036       1.79143036
C        2.91502782      -1.24524183       2.41385186
C        3.73931103      -2.04940651       3.21199963
C        3.44310851      -3.40125430       3.38444122
N        4.21819737      -4.30239061       4.14469924
C        5.39949641      -4.05072078       4.81288409
O        6.00143690      -2.98489116       4.81434855
C        5.96330547      -5.22245297       5.45780991
C        7.30500885      -5.55366963       5.39110182
C        8.49086258      -4.92988504       4.76911785
O        7.50821969      -6.74861708       5.99693257
N        6.31519070      -7.21996446       6.49300274
C        5.39652054      -6.28036100       6.22530894
C        3.99333366      -6.45057029       6.74397483
C        3.51048368      -7.64638622       7.24843919
C        2.14899912      -7.55348867       7.67019867
C        1.66873972      -6.28114571       7.50009225
Br      -0.07405704      -5.76241079       7.94869984
S        2.80929640      -5.21941691       6.84645769
C        2.29888031      -3.92058297       2.75985117
F        1.99413715      -5.21800018       2.92344559
C        1.47318658      -3.13258076       1.96439770
H        3.16438934      -0.19438562       2.28447095
H        4.60252345      -1.58541116       3.68013002
H        3.85258417      -5.24839737       4.17320867
H        8.45642743      -5.05316226       3.68233350
H        9.41559956      -5.38731893       5.13442878
H        8.53729407      -3.86147451       4.99501777
H        4.09691189      -8.55691454       7.29599092
H        1.57340114      -8.37822893       8.07589544
H        0.60309987      -3.57655175       1.49261656
C       -0.00445707       0.01189536      -1.78238275
H       -0.66409135       0.67374010      -2.43557963
H        0.65740317      -0.63156657      -2.45157240
C       -0.90989263      -0.90692880      -0.91072765
C        0.90977584       0.90977584      -0.90977584
C       -0.00465871       1.77757030       0.00794375
H       -0.66225468       2.44313916      -0.64384735
H        0.64322798       2.43503045       0.67728295
C       -1.78241447       0.00034974      -0.00472694
H       -2.45427497      -0.65498947       0.64260836
H       -2.43311707       0.67328779      -0.65473579
C       -0.91132561       0.90220522       0.91563759
C       -0.01476271      -0.02253852       1.78660255
H       -0.67934791      -0.69751639       2.42135241
H        0.63392994       0.61504881       2.47327442
C        0.01484550      -1.77751727      -0.01636693
H        0.67870853      -2.42144646      -0.68295456
H       -0.62264859      -2.45592969       0.64226336
C        1.78714474       0.01002794       0.00389507
H        2.44202412       0.67113390       0.66197326
H        2.45385902      -0.65136977      -0.64189061
C        0.91606151      -0.90478549       0.90901405
