158
Properties=species:S:1:pos:R:3 pbc="F F F"
C        1.78116518       1.78116518      -1.78116518
C        1.91698680       3.13415091      -1.61092270
C        2.81264373       3.68393001      -2.57865915
C        3.28665562       2.73209247      -3.46594843
S        2.69541481       1.17753033      -3.06861042
C        4.24662021       3.04768300      -4.58341135
N        4.94142674       4.19480638      -4.53743613
O        5.83808524       4.14332236      -5.57902067
C        5.64429738       3.00361136      -6.28592511
C        6.53289407       2.80116305      -7.44905483
C        4.58951717       2.29040229      -5.74374441
C        4.05725359       1.07620914      -6.34221685
O        4.79266428       0.31958420      -6.96852516
N        2.69197201       0.92326071      -6.19468148
C        1.89020396      -0.15948162      -6.61169691
C        2.34780974      -1.21654206      -7.39421640
C        1.48691356      -2.26409245      -7.73641763
C        0.16312940      -2.26859709      -7.29146748
Br      -0.92747990      -3.74097924      -7.78866462
C       -0.32199688      -1.21664883      -6.50351673
C       -1.73165529      -1.18437887      -5.98220644
C        0.55323783      -0.16267451      -6.18282644
H        1.41852620       3.70801305      -0.83893754
H        3.07744709       4.73500953      -2.62942440
H        5.95320883       2.78501584      -8.37674749
H        7.07355668       1.85382911      -7.35959285
H        7.27535889       3.60208957      -7.52691935
H        2.20969111       1.63607410      -5.66308138
H        3.36783771      -1.26077496      -7.76256670
H        1.86735167      -3.07791418      -8.34949845
H       -1.91523989      -0.29127715      -5.37514274
H       -1.92322601      -2.05315757      -5.34408824
H       -2.44731009      -1.16889626      -6.81012393
H        0.18211132       0.65456509      -5.56701503
C       -1.78116518      -1.78116518      -1.78116518
C       -1.42694332      -2.19718992      -3.03792716
C       -2.44742565      -3.01559057      -3.61221667
C       -3.54852893      -3.15265431      -2.78351328
S       -3.29830989      -2.34733233      -1.29591334
C       -4.76353320      -3.96499858      -3.14918278
N       -4.66876588      -4.86363600      -4.14126735
O       -5.85658504      -5.55688830      -4.14695494
C       -6.68577477      -5.03994575      -3.20811332
C       -8.01381475      -5.67734418      -3.09195303
C       -6.07327823      -3.96863565      -2.58174999
C       -6.74487725      -3.12685795      -1.60394438
O       -7.61183318      -3.59579113      -0.87314933
N       -6.36655448      -1.79856695      -1.64479277
C       -6.79019357      -0.74955727      -0.80266840
C       -7.80340826      -0.86736984       0.14529402
C       -8.13772554       0.22033158       0.95815521
C       -7.45556443       1.43289233       0.83667232
Br      -7.96389114       2.84859438       1.99509128
C       -6.43266578       1.57747503      -0.10968027
C       -5.65434570       2.85409171      -0.26591829
C       -6.12089397       0.47808110      -0.93057689
H       -0.49299335      -1.94620577      -3.52627767
H       -2.37985166      -3.46399796      -4.59803139
H       -8.80483888      -4.96517831      -3.34495498
H       -8.18062541      -6.03514279      -2.07121043
H       -8.10313361      -6.53660480      -3.76462939
H       -5.64646817      -1.55146716      -2.31091127
H       -8.36132802      -1.78856680       0.28026537
H       -8.93343619       0.10406521       1.69043504
H       -4.88930522       2.76552626      -1.04484675
H       -5.13784903       3.10348229       0.66666208
H       -6.31781545       3.67610031      -0.55220244
H       -5.32376584       0.58424225      -1.66416784
C       -1.78116518       1.78116518       1.78116518
C       -2.00880844       3.11120356       1.54204840
C       -2.87922865       3.66659520       2.52940904
C       -3.24253007       2.74497772       3.49718873
S       -2.58139485       1.20562961       3.15453110
C       -4.15414428       3.07244020       4.65113007
N       -4.91910956       4.17279405       4.58176563
O       -5.74961408       4.13348370       5.67733050
C       -5.44637345       3.05203099       6.43542940
C       -6.25265232       2.87016341       7.66029622
C       -4.38296562       2.36888275       5.87181550
C       -3.74412894       1.22604918       6.50550146
O       -4.39481396       0.46801835       7.21794132
N       -2.38280047       1.14310408       6.28400965
C       -1.49385255       0.13568083       6.71288587
C       -1.84040942      -0.89623624       7.58131090
C       -0.89898721      -1.86975597       7.93000750
C        0.39484401      -1.82530293       7.40614673
Br       1.59998854      -3.19950558       7.91969961
C        0.76882423      -0.79722967       6.53092493
C        2.14159643      -0.71585318       5.92362189
C       -0.18604161       0.18317925       6.20416890
H       -1.59146589       3.66461233       0.70939857
H       -3.20428602       4.70185542       2.53573958
H       -5.62070644       2.94396555       8.55030018
H       -6.73877893       1.88963343       7.65856628
H       -7.03687739       3.63035185       7.73713856
H       -1.97624002       1.84870603       5.68390055
H       -2.83298271      -0.97647009       8.01311682
H       -1.19322011      -2.66518872       8.61090455
H        2.23517892       0.14763444       5.25617018
H        2.34880526      -1.60948380       5.32599372
H        2.90137046      -0.60880332       6.70409136
H        0.09854707       0.98131617       5.52092233
C        1.78116518      -1.78116518       1.78116518
C        1.34231818      -2.39419700       2.92554522
C        2.38769611      -3.15786348       3.52967330
C        3.58481734      -3.05955350       2.84032568
S        3.40432623      -2.10236295       1.43486638
C        4.84488080      -3.76798115       3.26485261
N        4.75436447      -4.79240232       4.12690245
O        6.01342728      -5.34002918       4.20697182
C        6.87064713      -4.61440831       3.44877840
C        8.27453325      -5.07519768       3.43338102
C        6.20032899      -3.54820517       2.87512971
C        6.86472737      -2.51562533       2.09532688
O        7.86299069      -2.78366505       1.43411789
N        6.31543058      -1.25590130       2.23858232
C        6.69323919      -0.06515174       1.58402832
C        7.81494920       0.05750395       0.76803883
C        8.09642101       1.27235223       0.13516996
C        7.25361427       2.37287542       0.30526093
Br       7.70355240       3.97544705      -0.60789988
C        6.11908395       2.27568736       1.12147443
C        5.16929339       3.42379831       1.32067720
C        5.86041284       1.05086210       1.76383902
H        0.33403437      -2.31710174       3.31434067
H        2.26638445      -3.73490415       4.44059242
H        8.93249059      -4.31598141       3.86650017
H        8.60197563      -5.27635523       2.40864778
H        8.39678771      -5.99840996       4.00917013
H        5.49795246      -1.18117560       2.82971854
H        8.49920068      -0.76851027       0.60191850
H        8.97901650       1.34371277      -0.49636779
H        4.33809047       3.14815713       1.97869237
H        4.73499846       3.73108300       0.36378920
H        5.68358377       4.27229818       1.78263200
H        4.97757960       0.96921638       2.39532820
C       -0.00445707       0.01189536      -1.78238275
H       -0.66409135       0.67374010      -2.43557963
H        0.65740317      -0.63156657      -2.45157240
C       -0.90989263      -0.90692880      -0.91072765
C        0.90977584       0.90977584      -0.90977584
C       -0.00465871       1.77757030       0.00794375
H       -0.66225468       2.44313916      -0.64384735
H        0.64322798       2.43503045       0.67728295
C       -1.78241447       0.00034974      -0.00472694
H       -2.45427497      -0.65498947       0.64260836
H       -2.43311707       0.67328779      -0.65473579
C       -0.91132561       0.90220522       0.91563759
C       -0.01476271      -0.02253852       1.78660255
H       -0.67934791      -0.69751639       2.42135241
H        0.63392994       0.61504881       2.47327442
C        0.01484550      -1.77751727      -0.01636693
H        0.67870853      -2.42144646      -0.68295456
H       -0.62264859      -2.45592969       0.64226336
C        1.78714474       0.01002794       0.00389507
H        2.44202412       0.67113390       0.66197326
H        2.45385902      -0.65136977      -0.64189061
C        0.91606151      -0.90478549       0.90901405
