137
Properties=species:S:1:pos:R:3 pbc="F F F"
C        0.00000000       0.00000000       0.00000000
C        0.87126116       0.87126116      -0.87126116
C        1.00708278       2.22424688      -0.70101868
C        1.90273971       2.77402598      -1.66875513
C        2.37675159       1.82218845      -2.55604441
S        1.78551078       0.26762631      -2.15870640
C        3.33671618       2.13777898      -3.67350733
N        4.03152271       3.28490235      -3.62753210
O        4.92818121       3.23341834      -4.66911665
C        4.73439335       2.09370734      -5.37602109
C        5.62299005       1.89125903      -6.53915080
C        3.67961315       1.38049826      -4.83384039
C        3.14734956       0.16630512      -5.43231283
O        3.88276025      -0.59031983      -6.05862114
N        1.78206798       0.01335669      -5.28477746
C        0.98029993      -1.06938564      -5.70179288
C        1.43790572      -2.12644608      -6.48431237
C        0.57700954      -3.17399647      -6.82651361
C       -0.74677462      -3.17850112      -6.38156346
Br      -1.83738393      -4.65088326      -6.87876059
C       -1.23190090      -2.12655286      -5.59361271
C       -2.64155931      -2.09428290      -5.07230242
C       -0.35666620      -1.07257853      -5.27292241
H        0.50862218       2.79810902       0.07096649
H        2.16754306       3.82510551      -1.71952038
H        5.04330481       1.87511182      -7.46684347
H        6.16365266       0.94392508      -6.44968882
H        6.36545487       2.69218554      -6.61701532
H        1.29978709       0.72617007      -4.75317736
H        2.45793369      -2.17067898      -6.85266267
H        0.95744764      -3.98781821      -7.43959442
H       -2.82514391      -1.20118118      -4.46523872
H       -2.83313003      -2.96306159      -4.43418421
H       -3.35721411      -2.07880028      -5.90021990
H       -0.72779271      -0.25533894      -4.65711100
C       -0.87126116      -0.87126116      -0.87126116
C       -0.44620579      -1.44539480      -2.04074775
C       -1.48746319      -2.21989545      -2.63816218
C       -2.66916837      -2.16795918      -1.91785689
S       -2.47710836      -1.24084253      -0.49389260
C       -3.92186915      -2.89691298      -2.32922036
N       -3.82799881      -3.89764183      -3.21831652
O       -5.07505403      -4.47419223      -3.28146994
C       -5.93051883      -3.78856560      -2.48503734
C       -7.32204483      -4.28422532      -2.44712973
C       -5.27216409      -2.72026304      -1.90152467
C       -5.94180714      -1.72360746      -1.08055291
O       -6.91661554      -2.03219559      -0.40225044
N       -5.42683652      -0.44756942      -1.20579619
C       -5.81698701       0.71728733      -0.51300750
C       -6.92077768       0.79236160       0.33264407
C       -7.21576872       1.98421304       1.00202900
C       -6.40428067       3.10906449       0.83892846
Br      -6.87006589       4.67745919       1.80211330
C       -5.28829848       3.05976556      -0.00662603
C       -4.37176204       4.23552992      -0.20022808
C       -5.01608855       1.85760787      -0.68519701
H        0.54998006      -1.33397301      -2.45177177
H       -1.37484006      -2.77156780      -3.56576109
H       -8.00868730      -3.53129258      -2.84528021
H       -7.61904627      -4.51814183      -1.42007846
H       -7.43617346      -5.19599543      -3.04248684
H       -4.62629674      -0.33835126      -1.81448651
H       -7.58053894      -0.05412195       0.49474352
H       -8.08391714       2.01840412       1.65628915
H       -3.55069359       3.99654757      -0.88476761
H       -3.92145254       4.53025915       0.75320080
H       -4.91769594       5.08194838      -0.62845795
H       -4.14745272       1.81314249      -1.33966913
C       -0.87126116       0.87126116       0.87126116
C       -1.31470093       2.11456547       0.50308194
C       -2.12550520       2.69239254       1.52762307
C       -2.22974029       1.88050771       2.64473644
S       -1.40335052       0.40262858       2.40586439
C       -3.02762995       2.25321452       3.86715802
N       -3.94462583       3.22822923       3.77110211
O       -4.61774067       3.24260060       4.97037493
C       -4.07085548       2.32697529       5.80629100
C       -4.68367716       2.22288173       7.14684098
C       -2.99944028       1.70835456       5.18615696
C       -2.12980349       0.75655175       5.85961226
O       -2.57144093       0.03293243       6.74668821
N       -0.80897874       0.81330148       5.45792191
C        0.26132007      -0.00361807       5.87764531
C        0.17689421      -0.93591053       6.90857675
C        1.28386499      -1.72445517       7.23784683
C        2.48248492      -1.59425889       6.53303153
Br       3.92622470      -2.71974376       7.03646187
C        2.59353745      -0.66329042       5.49198683
C        3.85397666      -0.49891838       4.68935525
C        1.47511996       0.13347690       5.18532075
H       -1.08792003       2.59098505      -0.44314036
H       -2.59183514       3.66919956       1.45113425
H       -3.96271610       2.50139299       7.92115101
H       -5.02104688       1.19926156       7.33695812
H       -5.55272299       2.88240301       7.23952973
H       -0.58552372       1.47104110       4.72256969
H       -0.73231038      -1.07680854       7.48441553
H        1.19361610      -2.44483287       8.04767284
H        3.73917001       0.26516582       3.91291782
H        4.11058288      -1.43588346       4.18445893
H        4.68202628      -0.18747021       5.33370199
H        1.55522015       0.85497059       4.37422892
C        0.87126116      -0.87126116       0.87126116
C        0.50230412      -1.31627030       2.11377392
C        1.52707183      -2.12663952       2.69180946
C        2.64507599      -2.22899607       1.88091239
S        2.40683753      -1.40139963       0.40360632
C        3.86791103      -3.02605821       2.25403324
N        3.77179961      -3.94409672       3.22806084
O        4.97171315      -4.61605756       3.24294549
C        5.80798684      -4.06746707       2.32866786
C        7.14923397      -4.67888187       2.22528403
C        5.18741162      -2.99605378       1.71048640
C        5.86094544      -2.12483490       0.76018717
O        6.74915522      -2.56490338       0.03700296
N        5.45791329      -0.80445769       0.81783114
C        5.87738864       0.26704462       0.00236315
C        6.90930885       0.18453072      -0.92900612
C        7.23826762       1.29258927      -1.71615167
C        6.53215839       2.49039515      -1.58547552
Br       7.03527709       3.93572020      -2.70906348
C        5.49010026       2.59952714      -0.65541417
C        4.68608135       3.85902372      -0.49059742
C        5.18374863       1.48003588       0.13996493
H       -0.44460198      -1.09087485       2.58949184
H        1.45008663      -2.59399522       3.66808710
H        7.92256970      -3.95743914       2.50525125
H        7.34067603      -5.01506885       1.20152168
H        7.24212741      -5.54847925       2.88404907
H        4.72170381      -0.58235954       1.47507117
H        7.48617012      -0.72397521      -1.07022795
H        8.04888200       1.20383065      -2.43582749
H        3.90901276       3.74271692       0.27261779
H        4.18184752       4.11605115      -1.42780378
H        5.32931752       4.68739630      -0.17771571
H        4.37187723       1.55864350       0.86074562
