173
Properties=species:S:1:pos:R:3 pbc="F F F"
C        0.00000000       0.00000000       0.00000000
C        0.88118046       0.88118046      -0.88118046
C        2.04850126       1.43732096      -0.36375202
C        2.84889580       2.25282038      -1.17140935
C        2.47602567       2.53241574      -2.49241660
C        1.30992214       1.95213542      -3.00174102
C        0.51330434       1.12783627      -2.19990929
N        3.31286046       3.38496116      -3.24173176
C        3.01766963       3.96917554      -4.46046456
O        1.93698497       3.91150379      -5.04410680
C        4.15947904       4.80926205      -5.04328678
N        5.36901808       4.03544065      -5.35473129
C        6.28190972       3.84445682      -4.32506363
O        6.05065629       4.24805546      -3.17908124
C        7.51053503       3.02028685      -4.59891219
C        8.37621342       3.70774770      -5.61135675
N        7.99324396       3.86424444      -6.84119964
C        6.77548038       3.34208755      -7.30734080
C        6.84196636       2.74808746      -8.57963305
C        5.69986469       2.30294635      -9.23894110
C        4.46166914       2.47333050      -8.64067794
C        4.37284161       3.06747683      -7.37929710
C        5.51885295       3.48872215      -6.67507961
C        9.68029402       4.25858767      -5.26415094
C       10.36727533       5.26266002      -5.93221826
C       11.65093382       5.52698428      -5.36917466
C       11.89692549       4.70034480      -4.30449770
Br      13.49300946       4.72273200      -3.32478233
S       10.61670793       3.64674936      -3.96531249
H        2.34066939       1.24953685       0.66598571
H        3.75176135       2.68352267      -0.74667036
H        0.99487559       2.11118170      -4.02843287
H       -0.38964389       0.69080466      -2.61836694
H        4.19115145       3.67217551      -2.80554250
H        4.40014635       5.59608800      -4.31719535
H        3.80869522       5.32776868      -5.94356675
H        8.02663167       2.87164105      -3.64753455
H        7.22016644       2.02545545      -4.95219816
H        7.80913521       2.65188934      -9.06921691
H        5.77805945       1.84457484     -10.22094682
H        3.55853983       2.14157586      -9.14748641
H        3.37638149       3.14921872      -6.95570639
H        9.96152251       5.78016108      -6.79526586
H       12.34470385       6.27079823      -5.74212576
C       -0.88118046      -0.88118046      -0.88118046
C       -0.53206089      -1.10715524      -2.21035811
C       -1.34746746      -1.90745324      -3.01820483
C       -2.52506120      -2.46837796      -2.50741885
C       -2.85207318      -2.24573367      -1.16599173
C       -2.03323531      -1.45479487      -0.35301971
N       -3.31537411      -3.24049950      -3.38367978
C       -4.60726741      -3.68119744      -3.15884488
O       -5.30956072      -3.39077197      -2.19226287
C       -5.17869430      -4.54363778      -4.28969579
N       -4.45337098      -5.80360816      -4.50221088
C       -3.34648945      -5.76409212      -5.34084860
O       -2.94886031      -4.69967195      -5.82926074
C       -2.55601894      -7.02776023      -5.54595489
C       -3.39649912      -8.05255769      -6.24626105
N       -4.43421780      -8.58593789      -5.67853234
C       -4.78971952      -8.28081860      -4.35437062
C       -5.19539535      -9.38683010      -3.58746141
C       -5.70427512      -9.23677898      -2.30069803
C       -5.84159302      -7.96419907      -1.76988548
C       -5.45059117      -6.85095288      -2.51807148
C       -4.89481826      -6.98099958      -3.80683687
C       -3.10946384      -8.48536322      -7.60820557
C       -3.99958141      -9.05384724      -8.50872497
C       -3.38356965      -9.42207730      -9.74144581
C       -2.04399775      -9.13468977      -9.72308047
Br      -0.88715664      -9.50453843     -11.14882872
S       -1.53281138      -8.41850308      -8.27745532
H        0.36588937      -0.66084821      -2.62926170
H       -1.06178366      -2.06537575      -4.05479498
H       -3.73612459      -2.68459279      -0.71377278
H       -2.31054000      -1.29465818       0.68567046
H       -2.93287872      -3.42238443      -4.31360631
H       -5.15870477      -3.94532792      -5.20939701
H       -6.23632700      -4.75347096      -4.09023268
H       -1.66127522      -6.76801762      -6.11651442
H       -2.20755585      -7.40952583      -4.58073837
H       -5.12776315     -10.38370357      -4.01877475
H       -6.00850589     -10.10797526      -1.72709995
H       -6.24824728      -7.82891350      -0.77044131
H       -5.56128780      -5.88460170      -2.03541711
H       -5.05051097      -9.20278671      -8.28365176
H       -3.90167692      -9.88114340     -10.57480752
C       -0.88118046       0.88118046       0.88118046
C       -1.97268456       1.54742870       0.32946098
C       -2.77261069       2.36239903       1.13811581
C       -2.47354637       2.53112435       2.49618730
C       -1.38424149       1.84144141       3.03811568
C       -0.58903374       1.01759556       2.23442060
N       -3.30341597       3.38918254       3.24695488
C       -3.05529702       3.87301252       4.51900018
O       -2.02277403       3.70473806       5.16508346
C       -4.17826052       4.75006374       5.08370360
N       -5.45308996       4.04217186       5.26392821
C       -6.30401892       3.97988716       4.16752409
O       -5.96995297       4.43904952       3.06879050
C       -7.59850051       3.22556449       4.30566907
C       -8.48554440       3.90444351       5.30532996
N       -8.17806347       3.95573308       6.56489149
C       -7.03067499       3.32315385       7.07107990
C       -7.22144123       2.65513923       8.29310640
C       -6.15763470       2.09207631       8.99204113
C       -4.87321356       2.21550305       8.48696096
C       -4.66093741       2.88144514       7.27723298
C       -5.72710047       3.42384694       6.53170730
C       -9.72514786       4.56387720       4.91400757
C      -10.39061880       5.56777186       5.60376295
C      -11.61345460       5.95431327       4.97932489
C      -11.83854595       5.21593943       3.84728261
Br     -13.35948201       5.40945939       2.77158239
S      -10.60799492       4.10134313       3.51943173
H       -2.20539019       1.44604024      -0.72720989
H       -3.61512873       2.87982640       0.68699925
H       -1.13038244       1.91285284       4.09125489
H        0.25359097       0.49426144       2.67885724
H       -4.12983707       3.76280397       2.77622843
H       -4.31822637       5.59615856       4.39904476
H       -3.85728327       5.18499330       6.03775408
H       -8.05700061       3.17340405       3.31540260
H       -7.39691359       2.19276021       4.60814626
H       -8.22388245       2.59403865       8.71232037
H       -6.33163014       1.57840840       9.93354256
H       -4.02971473       1.79133977       9.02654760
H       -3.63475122       2.92194826       6.92460713
H      -10.01243968       6.00032924       6.52418053
H      -12.28217370       6.71836818       5.35708596
C        0.88118046      -0.88118046       0.88118046
C        0.41174885      -1.32160572       2.11621967
C        1.22602969      -2.12113657       2.92595927
C        2.51957987      -2.46692799       2.51435015
C        2.96913607      -2.03074247       1.26392003
C        2.15332668      -1.24014197       0.44758125
N        3.29738439      -3.25078860       3.39138039
C        4.65384903      -3.50294619       3.29051451
O        5.41971227      -3.00595905       2.46692424
C        5.19840384      -4.43529136       4.37833267
N        4.62752094      -5.78866728       4.34300180
C        3.43455337      -5.99138213       5.02549467
O        2.84412751      -5.05559320       5.57807228
C        2.80092004      -7.35505425       4.97375979
C        3.68240291      -8.35824977       5.65466518
N        4.84131183      -8.68576076       5.17161545
C        5.30589190      -8.16736750       3.95164934
C        5.94245561      -9.10604114       3.12119012
C        6.57424765      -8.72723820       1.94026628
C        6.60213344      -7.38804398       1.58550016
C        5.98124375      -6.43803443       2.40033736
C        5.30040349      -6.80291973       3.57933149
C        3.29777896      -8.99930089       6.90595278
C        4.14382749      -9.57427954       7.84404659
C        3.44201251     -10.17316677       8.93191347
C        2.08758733     -10.04507936       8.76910129
Br       0.83109994     -10.73473441       9.97468945
S        1.65873510      -9.20766154       7.36237313
H       -0.58054899      -1.04355803       2.46121149
H        0.84429164      -2.44816816       3.88949458
H        3.95067274      -2.29865307       0.88516435
H        2.52677014      -0.91163478      -0.51887721
H        2.83608047      -3.59855172       4.23423727
H        4.99110871      -3.97135471       5.35096627
H        6.29059570      -4.49111887       4.29831608
H        1.81883731      -7.28043515       5.44653481
H        2.62210739      -7.64305590       3.93265676
H        5.95809355     -10.15247612       3.41967180
H        7.05701259      -9.47248297       1.31408554
H        7.10157754      -7.07404404       0.67198051
H        6.01807663      -5.40974412       2.05348585
H        5.22431535      -9.56755530       7.74507880
H        3.91526309     -10.67516939       9.76719536
