133
Properties=species:S:1:pos:R:3 pbc="F F F"
C        0.00000000       0.00000000       0.00000000
C        0.88155297       0.88155297      -0.88155297
C        0.97746670       2.24667643      -0.62015742
C        1.78477368       3.05342994      -1.42894742
C        2.50108217       2.50266818      -2.50273028
C        2.39146195       1.12437560      -2.74927107
C        1.58459833       0.31587540      -1.94217550
C        3.34049194       3.35163392      -3.34322667
N        4.06653037       2.89535464      -4.37578355
O        4.68918377       4.03521048      -4.87239921
C        4.28282892       5.08303600      -4.09417111
N        3.45490447       4.71270079      -3.14110015
C        4.70440272       6.42271201      -4.29279345
N        4.28245773       7.45075333      -3.50768165
H        3.64598364       7.40278508      -2.71826002
N        4.79227028       8.64225300      -3.85830350
C        5.58011110       8.38191311      -4.91711511
C        5.54925937       6.98951290      -5.21824405
C        6.32714933       9.44488471      -5.60335638
C        6.23616499      10.77642074      -5.16307278
C        6.93946126      11.79923717      -5.80652238
C        7.74648805      11.50545424      -6.90244775
C        7.84465484      10.18971364      -7.34755473
Br       8.93972857       9.78620326      -8.83636889
C        7.14410117       9.16350491      -6.70839604
H        0.43073708       2.69268777       0.20671612
H        1.84919552       4.11799629      -1.21202274
H        2.93358645       0.66459569      -3.57439266
H        1.51394080      -0.74857916      -2.15151345
H        6.07232956       6.46694067      -6.00710041
H        5.61002572      11.02752307      -4.30760625
H        6.85416992      12.82219167      -5.44922766
H        8.29088806      12.30373721      -7.39936131
H        7.24408522       8.14955092      -7.08274695
C       -0.88155297      -0.88155297      -0.88155297
C       -1.04154763      -0.57220280      -2.23055013
C       -1.85005032      -1.38009799      -3.03700272
C       -2.50309343      -2.50122517      -2.50216204
C       -2.32850020      -2.79638816      -1.14022026
C       -1.52091531      -1.98983235      -0.33190157
C       -3.34646781      -3.33875466      -3.35013006
N       -3.98853778      -4.43414889      -2.91498189
O       -4.65534317      -4.89772364      -4.04372664
C       -4.35699075      -4.03867249      -5.06437278
N       -3.55555726      -3.06577718      -4.68737098
C       -4.85766119      -4.17810329      -6.38414370
N       -4.55044541      -3.30713449      -7.38331280
H       -3.95542036      -2.48669470      -7.32491368
N       -5.12484130      -3.60942575      -8.55855973
C       -5.83752802      -4.72447853      -8.31713277
C       -5.69061387      -5.11246216      -6.95394029
C       -6.62646630      -5.37936412      -9.36956000
C       -6.65448105      -4.85002819     -10.67114928
C       -7.40166559      -5.46063424     -11.68292099
C       -8.13374992      -6.61264239     -11.40799772
C       -8.11341303      -7.14643097     -10.12207920
Br      -9.10687821      -8.71128335      -9.74413916
C       -7.36849651      -6.54047099      -9.10703463
H       -0.54432593       0.29171973      -2.66410253
H       -1.96516674      -1.12523629      -4.08881151
H       -2.82090625      -3.65871628      -0.69295226
H       -1.40028557      -2.23656673       0.71997722
H       -6.13453684      -5.96054792      -6.45128587
H       -6.08889149      -3.94924961     -10.90701395
H       -7.40919919      -5.03387447     -12.68251560
H       -8.71308358      -7.08341354     -12.19748946
H       -7.37606985      -6.98397695      -8.11633629
C       -0.88155297       0.88155297       0.88155297
C       -1.00774982       0.59698929       2.23956144
C       -1.81628149       1.40484234       3.04602721
C       -2.50307366       2.50120669       2.50220028
C       -2.36225324       2.77161722       1.13123816
C       -1.55470450       1.96504581       0.32289893
C       -3.34623409       3.33883363       3.35028481
N       -4.01950559       4.41175990       2.90640306
O       -4.67274827       4.88497320       4.03907198
C       -4.33607480       4.05343529       5.07052593
N       -3.52249558       3.08938952       4.69682033
C       -4.81267803       4.20995732       6.39727283
N       -4.46733361       3.36624217       7.40731692
H       -3.85677377       2.55699482       7.35326014
N       -5.02392781       3.68107368       8.58782529
C       -5.76426788       4.77622579       8.33864565
C       -5.65305989       5.13883136       6.96512507
C       -6.54509507       5.43661678       9.39367857
C       -6.53577839       4.93385326      10.70602687
C       -7.27477735       5.54998849      11.72045498
C       -8.03594987       6.68099471      11.43744546
C       -8.05271577       7.18837753      10.14082992
Br      -9.08578489       8.72462836       9.75188747
C       -7.31614627       6.57677277       9.12308308
H       -0.48408526      -0.24753020       2.68015367
H       -1.90476736       1.16950745       4.10493974
H       -2.88134910       3.61435689       0.67686881
H       -1.46054097       2.19236704      -0.73603292
H       -6.12452068       5.96717154       6.45467841
H       -5.94701791       4.04979006      10.94834708
H       -7.25322842       5.14392757      12.72843326
H       -8.60878017       7.15615764      12.22904876
H       -7.35296188       6.99945076       8.12397046
C        0.88155297      -0.88155297       0.88155297
C        1.26339737      -2.14511171       0.43579148
C        2.07037612      -2.95215120       1.24462371
C        2.50111825      -2.50292271       2.50243967
C        2.10584132      -1.22597029       2.93329701
C        1.29871524      -0.41747490       2.12645909
C        3.34210161      -3.35181156       3.34143936
N        3.80582230      -2.98534898       4.54649727
O        4.54199184      -4.08738033       4.96742129
C        4.45748605      -5.02567019       3.97687978
N        3.73208492      -4.61938693       2.95723356
C        5.08044595      -6.29834519       4.04111703
N        4.97825107      -7.21855697       3.04408466
H        4.47240492      -7.12581342       2.16881040
N        5.63661818      -8.36146504       3.29474356
C        6.19202033      -8.18061126       4.50650773
C        5.86230645      -6.88781832       5.00689155
C        7.00591663      -9.22342670       5.14604709
C        7.22755392     -10.45044837       4.49765622
C        7.99821571     -11.45317856       5.09382654
C        8.56047026     -11.24365987       6.35025991
C        8.34794570     -10.03175636       7.00222115
Br       9.10973056      -9.74304067       8.70952949
C        7.57867184      -9.02609224       6.41123804
H        0.94041705      -2.51156056      -0.53526887
H        2.36007995      -3.93672317       0.88241143
H        2.42211022      -0.84653595       3.90392863
H        1.00413884       0.56741382       2.48015006
H        6.15419530      -6.44371504       5.94846029
H        6.79633740     -10.63456351       3.51425413
H        8.15645984     -12.39473178       4.57439764
H        9.15838711     -12.02599488       6.80960459
H        7.43372137      -8.09413363       6.94852810
