106
Properties=species:S:1:pos:R:3 pbc="F F F"
C        1.82439225       1.82439225      -1.82439225
C        1.34732225       3.26183381      -1.74950261
O        0.17418480       3.56903651      -1.52634752
C        2.35251699       4.34965091      -1.97690930
C        2.07959124       5.54922516      -1.43720324
C        2.99625885       6.66403162      -1.60969041
C        2.73646437       7.92985202      -1.07993165
C        3.65471016       8.96429650      -1.28131255
Br       3.30047559      10.67928562      -0.56762087
C        4.82993742       8.74803122      -2.00430210
C        5.09240674       7.48498998      -2.53297140
C        4.17049657       6.46113824      -2.32818724
O        4.46364688       5.20277989      -2.88216166
C        3.58769559       4.12982544      -2.75841473
O        3.83603844       3.05059642      -3.28341594
H        1.74935068       1.44518033      -2.84446255
H        2.83070370       1.71035491      -1.41756471
H        1.17099655       5.72380638      -0.86560572
H        1.82513374       8.11517225      -0.51618920
H        5.54178061       9.55494994      -2.16080114
H        6.00172275       7.30400067      -3.09923756
C       -1.82439225      -1.82439225      -1.82439225
C       -2.45742813      -0.98447772      -2.91675283
O       -2.70307419       0.21642619      -2.78292083
C       -2.81316828      -1.65945335      -4.20645556
C       -2.88879235      -0.87954563      -5.29768166
C       -3.23117859      -1.44779644      -6.59100585
C       -3.33815382      -0.66527984      -7.74281438
C       -3.67365905      -1.26825401      -8.95840616
Br      -3.82275905      -0.20769137     -10.51693165
C       -3.90178588      -2.64393392      -9.03655094
C       -3.79422537      -3.42760774      -7.88853500
C       -3.46092492      -2.81718563      -6.68171151
O       -3.36904573      -3.63650153      -5.54304116
C       -3.07486228      -3.11183169      -4.28924179
O       -3.04065238      -3.83155297      -3.29784545
H       -2.58946172      -2.26550349      -1.18402835
H       -1.14813300      -2.57710138      -2.23338894
H       -2.70425869       0.19103557      -5.24718553
H       -3.16550352       0.40752111      -7.69851278
H       -4.16418999      -3.11016204      -9.98317966
H       -3.97135159      -4.49845949      -7.93514990
C       -1.82439225       1.82439225       1.82439225
C       -3.19459387       1.19183156       1.97223325
O       -3.69422725       0.46368529       1.11165630
C       -3.97536470       1.48698936       3.21672314
C       -4.90286061       0.58488916       3.57826987
C       -5.71013672       0.79040042       4.76944373
C       -6.69652756      -0.11556803       5.16528850
C       -7.44335184       0.13756315       6.31940422
Br      -8.78190794      -1.08716348       6.85263762
C       -7.21478477       1.28434282       7.08314315
C       -6.22972119       2.18962863       6.69101829
C       -5.49194322       1.92925698       5.53862185
O       -4.51250833       2.86741092       5.16866918
C       -3.75002226       2.70941009       4.01650342
O       -2.92991463       3.55696479       3.68317138
H       -1.89918650       2.79922876       1.34057830
H       -1.29919648       1.87990996       2.77951689
H       -5.08126617      -0.31486182       2.99400430
H       -6.88816722      -1.01228512       4.58061309
H       -7.79830448       1.47958131       7.97964589
H       -6.04341563       3.08665094       7.27489441
C        1.82439225      -1.82439225       1.82439225
C        1.49884722      -3.28435578       1.57545568
O        0.38596049      -3.67150292       1.21210542
C        2.58139852      -4.29533616       1.80234251
C        2.47632397      -5.45585776       1.13383790
C        3.47865882      -6.49610049       1.29522156
C        3.39219665      -7.72208968       0.63196171
C        4.38565866      -8.68536384       0.82929672
Br       4.26592155     -10.34698477      -0.06552424
C        5.46499908      -8.43707961       1.68019205
C        5.55448154      -7.21350032       2.34238625
C        4.55872703      -6.26071909       2.14037593
O        4.67682525      -5.04152522       2.83023795
C        3.71460322      -4.04390970       2.71742284
O        3.80839703      -3.00342566       3.35822812
H        1.62205301      -1.55501664       2.86192391
H        2.84692963      -1.58192318       1.52977052
H        1.64370946      -5.65389196       0.46280723
H        2.55722153      -7.93178078      -0.03250712
H        6.23560608      -9.18881931       1.83310629
H        6.38765880      -7.00852843       3.00877375
C       -0.00445707       0.01189536      -1.78238275
H       -0.66409135       0.67374010      -2.43557963
H        0.65740317      -0.63156657      -2.45157240
C       -0.90989263      -0.90692880      -0.91072765
C        0.90977584       0.90977584      -0.90977584
C       -0.00465871       1.77757030       0.00794375
H       -0.66225468       2.44313916      -0.64384735
H        0.64322798       2.43503045       0.67728295
C       -1.78241447       0.00034974      -0.00472694
H       -2.45427497      -0.65498947       0.64260836
H       -2.43311707       0.67328779      -0.65473579
C       -0.91132561       0.90220522       0.91563759
C       -0.01476271      -0.02253852       1.78660255
H       -0.67934791      -0.69751639       2.42135241
H        0.63392994       0.61504881       2.47327442
C        0.01484550      -1.77751727      -0.01636693
H        0.67870853      -2.42144646      -0.68295456
H       -0.62264859      -2.45592969       0.64226336
C        1.78714474       0.01002794       0.00389507
H        2.44202412       0.67113390       0.66197326
H        2.45385902      -0.65136977      -0.64189061
C        0.91606151      -0.90478549       0.90901405
