166
Properties=species:S:1:pos:R:3 pbc="F F F"
C        1.95254331      -1.60995106      -9.71042629
O        2.17170517      -0.29866750      -9.18656739
C        1.85963518      -0.15279402      -7.87927806
O        1.44270469      -1.04784710      -7.15486557
C        2.08214775       1.21782907      -7.40984001
C        1.99348147       1.49156363      -6.10367002
N        2.15561102       2.70179020      -5.42745501
C        2.35996443       2.64984324      -3.99909575
C        3.42549329       3.35380830      -3.40379639
C        3.65681229       3.29303708      -2.02691371
C        2.84135299       2.50581102      -1.21906661
C        1.79231108       1.79231108      -1.79231108
C        1.54278901       1.86621664      -3.16512541
C        2.23004041       3.92447089      -6.18044811
C        2.05122265       5.17785718      -5.55643734
C        2.15948560       6.37570674      -6.27249364
C        2.42567488       6.36628231      -7.63566310
C        2.55559983       5.14601826      -8.28915019
C        2.44563760       3.94659014      -7.56364950
S        2.54964264       2.44388968      -8.48764040
O        3.95445937       2.30115368      -8.82158251
O        1.54710035       2.58233469      -9.53121905
H        0.91421836      -1.92102608      -9.55709163
H        2.64325959      -2.32121823      -9.24758572
H        2.14877689      -1.58178649     -10.78570992
H        1.79185174       0.65680817      -5.43291208
H        4.10325853       3.94634836      -4.01530885
H        4.48170378       3.85071786      -1.58978423
H        3.03454059       2.45045170      -0.15079255
H        0.70090460       1.31706496      -3.57888675
H        1.80576565       5.23363920      -4.49824474
H        2.51577675       7.29288094      -8.19678023
H        2.73862674       5.12446413      -9.36255135
C        1.99013804       7.63191324      -5.58921724
C        1.84830947       8.68398618      -5.01697325
Br       1.61898466      10.38509915      -4.09170313
C       -6.59079482       3.33172695      -6.79395067
O       -6.14248600       1.97874606      -6.89586513
C       -5.23512208       1.61214717      -5.96314431
O       -4.81846991       2.33734227      -5.06859551
C       -4.79708110       0.22419552      -6.13693125
C       -4.03897106      -0.35202233      -5.19772174
N       -3.50273915      -1.63950787      -5.14260920
C       -3.03001798      -2.11499329      -3.86389215
C       -3.43679402      -3.37202023      -3.37428373
C       -3.01298659      -3.83726691      -2.12650958
C       -2.19264596      -3.04314547      -1.33043919
C       -1.79231108      -1.79231108      -1.79231108
C       -2.19512052      -1.33085500      -3.04815554
C       -3.54887389      -2.47206182      -6.31402370
C       -2.73889021      -3.62280660      -6.42382036
C       -2.80364796      -4.46119379      -7.54284422
C       -3.65787581      -4.17087612      -8.59886835
C       -4.43074131      -3.01649897      -8.54352801
C       -4.36067510      -2.17881592      -7.41638623
S       -5.32063708      -0.69596848      -7.46456716
O       -6.69145782      -1.12550284      -7.26023490
O       -4.92289607      -0.03892548      -8.69883255
H       -5.74456926       4.02521984      -6.83093449
H       -7.16609338       3.47002807      -5.87356177
H       -7.24255135       3.53731395      -7.64746292
H       -3.80912250       0.23938799      -4.31183748
H       -4.10932896      -3.99823960      -3.95734718
H       -3.33506936      -4.81396942      -1.77316709
H       -1.87773444      -3.40357932      -0.35447109
H       -1.84551626      -0.36038929      -3.39095076
H       -2.02891577      -3.87077595      -5.63795787
H       -3.71660813      -4.82020031      -9.46862948
H       -5.08537015      -2.76381752      -9.37645455
C       -1.97339945      -5.63628396      -7.60158511
C       -1.27806632      -6.62042198      -7.65078060
Br      -0.15377147      -8.21168993      -7.73032554
C       -3.01752996       9.29884322      -2.26335464
O       -3.73859697       8.58101414      -1.26000604
C       -3.29065253       7.32623590      -1.03076922
O       -2.33344004       6.81062502      -1.59434190
C       -4.08596899       6.63542758      -0.01157974
C       -3.67198507       5.45498240       0.46174766
N       -4.25232463       4.61714267       1.41538892
C       -3.42344928       3.58809308       1.99736107
C       -3.35685137       3.43032429       3.39592232
C       -2.53857552       2.45907623       3.97911132
C       -1.74967823       1.64096378       3.17558862
C       -1.79231108       1.79231108       1.79231108
C       -2.62474650       2.74698366       1.20240091
C       -5.59395208       4.88040450       1.86060283
C       -6.34141584       3.89841573       2.54568559
C       -7.63384629       4.15682939       3.01701029
C       -8.23409397       5.39089603       2.80263028
C       -7.54339623       6.36152739       2.08584467
C       -6.24544003       6.09514814       1.61528907
S       -5.47268988       7.35797671       0.65050614
O       -5.09044323       8.38256130       1.60419102
O       -6.42428670       7.64634348      -0.40997609
H       -3.01239717       8.74621304      -3.20832629
H       -1.99636730       9.49758878      -1.92432899
H       -3.52391172      10.25426456      -2.42547596
H       -2.72352906       5.07284878       0.08519415
H       -3.93251407       4.08129609       4.05110558
H       -2.50925049       2.35207395       5.06088143
H       -1.10394246       0.89690660       3.63493578
H       -2.65437439       2.82393354       0.11854838
H       -5.92650270       2.90571247       2.70543442
H       -9.23553342       5.59981052       3.17009399
H       -8.01294422       7.32419737       1.88850063
C       -8.35061170       3.13109885       3.72955797
C       -8.95090273       2.27204952       4.32631666
Br      -9.92152256       0.88303941       5.29122498
C        5.58850454      -7.68658651      -3.22207251
O        5.90146448      -7.11051796      -1.95237738
C        5.12350249      -6.06255228      -1.59993556
O        4.19789141      -5.62128033      -2.26944858
C        5.51051229      -5.50155219      -0.30224766
C        4.73544409      -4.57744555       0.27582548
N        4.89501200      -3.90265639       1.48718784
C        3.74191976      -3.22987518       2.03710849
C        3.36726119      -3.43620940       3.37962739
C        2.23818004      -2.81654930       3.92203375
C        1.44496594      -1.99632013       3.12494456
C        1.79231108      -1.79231108       1.79231108
C        2.93208179      -2.39182069       1.25022859
C        6.14682909      -4.00029485       2.18783547
C        6.48209668      -3.09013516       3.21328533
C        7.68091457      -3.19916945       3.92760195
C        8.59552727      -4.20141507       3.63067794
C        8.31756057      -5.08194182       2.59126591
C        7.11139083      -4.96660944       1.87787697
S        6.87555963      -6.07975915       0.52585394
O        6.57801856      -7.36126346       1.13791354
O        8.05675134      -5.90783317      -0.30393042
H        5.63228923      -6.93093065      -4.01293597
H        4.60145191      -8.15762154      -3.18944637
H        6.33541891      -8.45535157      -3.43807015
H        3.81443326      -4.30710774      -0.23996901
H        3.94589703      -4.10289902       4.01611969
H        1.97314388      -2.98609265       4.96296933
H        0.55962586      -1.52837348       3.54778550
H        3.19043756      -2.19316905       0.21324970
H        5.81335710      -2.26754907       3.45674343
H        9.52612130      -4.29469953       4.18461709
H        9.03814362      -5.85612979       2.33136881
C        7.97094210      -2.26019683       4.98012959
C        8.21384016      -1.47380725       5.86162149
Br       8.60658578      -0.20228182       7.28691934
C       -0.00445707       0.01189536      -1.78238275
H       -0.66409135       0.67374010      -2.43557963
H        0.65740317      -0.63156657      -2.45157240
C       -0.90989263      -0.90692880      -0.91072765
C        0.90977584       0.90977584      -0.90977584
C       -0.00465871       1.77757030       0.00794375
H       -0.66225468       2.44313916      -0.64384735
H        0.64322798       2.43503045       0.67728295
C       -1.78241447       0.00034974      -0.00472694
H       -2.45427497      -0.65498947       0.64260836
H       -2.43311707       0.67328779      -0.65473579
C       -0.91132561       0.90220522       0.91563759
C       -0.01476271      -0.02253852       1.78660255
H       -0.67934791      -0.69751639       2.42135241
H        0.63392994       0.61504881       2.47327442
C        0.01484550      -1.77751727      -0.01636693
H        0.67870853      -2.42144646      -0.68295456
H       -0.62264859      -2.45592969       0.64226336
C        1.78714474       0.01002794       0.00389507
H        2.44202412       0.67113390       0.66197326
H        2.45385902      -0.65136977      -0.64189061
C        0.91606151      -0.90478549       0.90901405
