154
Properties=species:S:1:pos:R:3 pbc="F F F"
C        1.79210763       1.79210763      -1.79210763
C        1.49398431       3.14551186      -1.93307237
C        2.30352136       3.94950087      -2.73405643
C        3.40312620       3.39745146      -3.39366330
C        3.69876674       2.03087631      -3.27043737
C        2.88690405       1.23224390      -2.45166980
C        4.87854000       1.43099685      -4.00234142
N        4.80406029       1.62660542      -5.44906685
C        3.69072774       1.01407097      -6.15792634
C        2.94684001       2.03923313      -6.95910357
C        1.70687142       2.55023930      -6.56099531
C        1.07321025       3.51479053      -7.34614531
Br      -0.59498881       4.21488305      -6.79776746
C        1.65816879       3.96837920      -8.52995795
C        2.89860582       3.46670163      -8.92506945
C        3.54246601       2.53173584      -8.12111435
O        4.75506579       2.03723149      -8.50825688
C        5.78628708       2.47714779      -7.64138958
C        5.85788461       2.24150524      -6.10589502
O        6.85539182       2.63994245      -5.49479390
H        0.64035095       3.58275332      -1.42234428
H        2.07854706       5.00735482      -2.84646133
H        4.02752193       4.03645781      -4.01670177
H        3.10664659       0.17400213      -2.33101428
H        4.93657483       0.34926419      -3.83006947
H        5.79391158       1.86305108      -3.58341078
H        4.08717006       0.22681779      -6.81120592
H        3.01535911       0.51338699      -5.45491965
H        1.24358955       2.20396300      -5.63997611
H        1.15932266       4.71160124      -9.14648668
H        3.36327505       3.81214834      -9.84414424
H        6.70101922       2.01192211      -8.03059969
H        5.91354347       3.55872637      -7.78923035
C       -1.79210763      -1.79210763      -1.79210763
C       -3.12229427      -1.44045749      -2.00981678
C       -3.92364731      -2.24391748      -2.81951387
C       -3.39448130      -3.39627865      -3.40348101
C       -2.06011735      -3.76618025      -3.17378283
C       -1.25730259      -2.94467539      -2.36883977
C       -1.49495127      -5.02598322      -3.79094378
N       -2.24251904      -6.22401349      -3.41320004
C       -2.27059113      -6.58756224      -2.00457168
C       -3.68297802      -6.73639871      -1.52579997
C       -4.31366926      -5.77235713      -0.73207963
C       -5.63685211      -5.96550040      -0.33179359
Br      -6.49160059      -4.65385172       0.72779061
C       -6.33530431      -7.11497764      -0.70622399
C       -5.71158517      -8.07405490      -1.50473683
C       -4.40461757      -7.86028644      -1.93041219
O       -3.79162864      -8.79972687      -2.70919866
C       -3.57233568      -8.31117937      -4.02130939
C       -2.75611119      -7.04427885      -4.40489484
O       -2.60723806      -6.77999376      -5.60289634
H       -3.54127447      -0.54472386      -1.55945023
H       -4.96205451      -1.97410981      -2.99619888
H       -4.03127235      -4.01556715      -4.03384201
H       -0.21678810      -3.20528719      -2.18958771
H       -0.45712575      -5.18524342      -3.47353931
H       -1.47144737      -4.89109189      -4.87783419
H       -1.71913110      -7.52761203      -1.87845063
H       -1.73904577      -5.84104450      -1.40357547
H       -3.77830546      -4.87314499      -0.43607822
H       -7.36212212      -7.26994514      -0.38534332
H       -6.24509902      -8.97230203      -1.80216658
H       -3.06568264      -9.13040312      -4.54745527
H       -4.55110339      -8.20141125      -4.50898556
C       -1.79210763       1.79210763       1.79210763
C       -1.79621522       3.17234442       1.60400890
C       -2.60606137       3.97459590       2.40642139
C       -3.40357607       3.39550794       3.39515695
C       -3.39071427       2.00729452       3.60207163
C       -2.58322292       1.20645127       2.78114356
C       -4.24007872       1.38438548       4.68741407
N       -3.94382066       1.92172774       6.01418416
C       -2.60608789       1.71045327       6.54618389
C       -1.98483882       3.01449988       6.94583800
C       -0.99488243       3.64154526       6.18167833
C       -0.46772175       4.86339141       6.60303294
Br       0.85879615       5.71604800       5.56040985
C       -0.91004921       5.46235751       7.78409922
C       -1.90318463       4.84342988       8.54376240
C       -2.45048362       3.64353384       8.10129874
O       -3.42021277       3.03480611       8.84553529
C       -4.66897033       3.05992772       8.17592639
C       -4.96976996       2.46425675       6.77125816
O       -6.12883990       2.51562981       6.34565846
H       -1.17886857       3.63048978       0.83609021
H       -2.61653495       5.05243476       2.26339349
H       -4.03162636       4.03353166       4.01552349
H       -2.56920987       0.12730091       2.91515222
H       -4.07592797       0.30106056       4.73891996
H       -5.29262740       1.52793781       4.41980824
H       -2.67896823       1.03699461       7.40923092
H       -1.97654841       1.19536513       5.81175221
H       -0.64448323       3.18339179       5.25965365
H       -0.49158905       6.40850205       8.11731948
H       -2.25507862       5.30007947       9.46440953
H       -5.36085224       2.53535946       8.84732933
H       -5.01449244       4.10274841       8.14425935
C        1.79210763      -1.79210763       1.79210763
C        3.11437219      -1.42567797       2.03251838
C        3.91564218      -2.22925072       2.84218577
C        3.39438527      -3.39640036       3.40345533
C        2.06835203      -3.78097148       3.15075691
C        1.26531231      -2.95944116       2.34606428
C        1.51211438      -5.05647513       3.74328876
N        2.28084471      -6.23916498       3.35972287
C        2.33268601      -6.58317190       1.94686714
C        3.75323984      -6.70659442       1.48534244
C        4.38136317      -5.72352785       0.71321500
C        5.71227994      -5.89350673       0.32835942
Br       6.56326323      -4.55629368      -0.70189521
C        6.42118262      -7.03850856       0.69681476
C        5.79989870      -8.01658343       1.47389478
C        4.48457491      -7.82611044       1.88463086
O        3.87401687      -8.78414100       2.64239629
C        3.63058571      -8.31640745       3.95783128
C        2.79219911      -7.06585754       4.34722822
O        2.62374245      -6.81985636       5.54652935
H        3.52715570      -0.51839495       1.59989791
H        4.94783880      -1.94799587       3.03652853
H        4.03102502      -4.01560485       4.03405165
H        0.23091843      -3.23149518       2.14924938
H        0.48088292      -5.22528670       3.40973887
H        1.47224517      -4.93666041       4.83146786
H        1.79575991      -7.52871848       1.80071537
H        1.79915485      -5.83575144       1.34875945
H        3.83786356      -4.82762736       0.42203775
H        7.45420818      -7.17536011       0.38784230
H        6.34151651      -8.91156320       1.76648792
H        3.12809405      -9.14939490       4.46605208
H        4.60116326      -8.20017786       4.46015907
C       -0.00445707       0.01189536      -1.78238275
H       -0.66409135       0.67374010      -2.43557963
H        0.65740317      -0.63156657      -2.45157240
C       -0.90989263      -0.90692880      -0.91072765
C        0.90977584       0.90977584      -0.90977584
C       -0.00465871       1.77757030       0.00794375
H       -0.66225468       2.44313916      -0.64384735
H        0.64322798       2.43503045       0.67728295
C       -1.78241447       0.00034974      -0.00472694
H       -2.45427497      -0.65498947       0.64260836
H       -2.43311707       0.67328779      -0.65473579
C       -0.91132561       0.90220522       0.91563759
C       -0.01476271      -0.02253852       1.78660255
H       -0.67934791      -0.69751639       2.42135241
H        0.63392994       0.61504881       2.47327442
C        0.01484550      -1.77751727      -0.01636693
H        0.67870853      -2.42144646      -0.68295456
H       -0.62264859      -2.45592969       0.64226336
C        1.78714474       0.01002794       0.00389507
H        2.44202412       0.67113390       0.66197326
H        2.45385902      -0.65136977      -0.64189061
C        0.91606151      -0.90478549       0.90901405
