138
Properties=species:S:1:pos:R:3 pbc="F F F"
C        1.78307220       1.78307220      -1.78307220
C        2.63374209       2.66578535      -1.24000861
C        1.65130143       1.55679233      -3.26309762
N        0.33635247       1.95378660      -3.70619576
C        0.03148690       1.97048915      -5.04601891
O        0.84499633       1.78419912      -5.94363673
C       -1.42036591       2.22436843      -5.35914791
C       -2.12078952       1.18516817      -6.23643302
C       -2.46440642       1.26730954      -4.78439213
C       -1.80858038       3.68552316      -5.56869431
C       -2.32198470       4.47130036      -4.52091221
C       -2.67256442       5.81033136      -4.71648165
C       -2.51331157       6.39637523      -5.96999966
C       -1.99939143       5.63991349      -7.01834207
Br      -1.77811326       6.42758443      -8.72279165
C       -1.64663029       4.30396550      -6.82197147
H        2.71700703       2.79128791      -0.16482758
H        3.27394696       3.28597546      -1.85981522
H        1.79945198       0.50035700      -3.51517282
H        2.39455297       2.13233599      -3.82761831
H       -0.41869117       1.99649291      -3.03537002
H       -1.53640996       0.33790851      -6.58086654
H       -2.86137951       1.51991123      -6.95403912
H       -3.44517981       1.65133062      -4.52638504
H       -2.13559020       0.45124577      -4.15028554
H       -2.45304434       4.03419597      -3.53329148
H       -3.06858940       6.39531030      -3.89026852
H       -2.78811980       7.43718933      -6.11782323
H       -1.23469321       3.72516484      -7.64714970
C       -1.78307220      -1.78307220      -1.78307220
C       -3.11935750      -1.73681398      -1.68336458
C       -1.05184324      -2.64982621      -2.76952192
N       -0.27922707      -3.64775403      -2.06935373
C        0.36184547      -4.64362304      -2.76621740
O        0.23527986      -4.83846790      -3.96964415
C        1.27777009      -5.50502954      -1.93589097
C        2.72727459      -5.61597280      -2.41211346
C        2.42088700      -4.82891436      -1.17926790
C        0.64638673      -6.75766820      -1.33435563
C        0.12547724      -6.76803345      -0.02767166
C       -0.45545381      -7.91657831       0.51778354
C       -0.53128906      -9.08475656      -0.23701770
C       -0.02986081      -9.09435405      -1.53464927
Br      -0.13011218     -10.67498804      -2.56716260
C        0.54730061      -7.94663283      -2.07997446
H       -3.61654078      -1.08508914      -0.97149259
H       -3.75316999      -2.35008091      -2.31648673
H       -0.37148229      -2.05429865      -3.38920087
H       -1.74413444      -3.16221228      -3.44816055
H       -0.02186854      -3.48608148      -1.10522175
H        3.00644110      -5.07696170      -3.31184450
H        3.24515331      -6.56142208      -2.29630208
H        2.74308025      -5.24466297      -0.23095313
H        2.52567913      -3.75120785      -1.24041239
H        0.17276307      -5.86611691       0.57891072
H       -0.84932551      -7.89846334       1.53079944
H       -0.98268186      -9.97551489       0.19130399
H        0.92602721      -7.96292823      -3.10072031
C       -1.78307220       1.78307220       1.78307220
C       -1.26557194       2.82620313       2.44776097
C       -3.24126230       1.41976897       1.81016010
N       -3.41641336       0.13531264       2.44460884
C       -4.67773166      -0.34062688       2.71089019
O       -5.70802481       0.30566170       2.55914567
C       -4.72360036      -1.76388838       3.20343845
C       -5.61263601      -2.72935037       2.41752603
C       -4.12708645      -2.85748624       2.31769505
C       -4.67158478      -1.94411575       4.71816807
C       -3.46051002      -2.18305033       5.39276818
C       -3.41711204      -2.34361350       6.78075005
C       -4.58976999      -2.26499148       7.52828481
C       -5.79753041      -2.02105607       6.88238979
Br      -7.39400696      -1.91094922       7.88920509
C       -5.84006988      -1.85776971       5.49700651
H       -0.20953989       3.07187144       2.39171118
H       -1.88850785       3.46603058       3.06519919
H       -3.65313291       1.36609909       0.79574980
H       -3.83217147       2.16090851       2.36142728
H       -2.63648105      -0.50665832       2.48334903
H       -6.15477530      -2.33594539       1.56353518
H       -6.15434934      -3.49838868       2.95661018
H       -3.67001577      -3.72265055       2.78517062
H       -3.66761135      -2.57768357       1.37601333
H       -2.53241341      -2.24662249       4.82865220
H       -2.46816956      -2.52879912       7.27761897
H       -4.55157697      -2.39148886       8.60680465
H       -6.78964995      -1.65591042       5.00388180
C        1.78307220      -1.78307220       1.78307220
C        1.24910282      -2.53113211       2.75930112
C        3.24843953      -1.77382704       1.44892481
N        3.80637163      -0.47053477       1.71942843
C        5.16136624      -0.26260139       1.62402734
O        5.98651190      -1.14936886       1.43695142
C        5.58884776       1.17667745       1.75098012
C        6.43403460       1.74061535       0.60739242
C        5.01807692       2.19273921       0.76195755
C        5.92878162       1.64610169       3.16295717
C        4.97724218       2.28533945       3.97832514
C        5.29193537       2.71011172       5.27242494
C        6.57088845       2.50067162       5.78284649
C        7.52506377       1.86285044       4.99665079
Br       9.26311735       1.57273628       5.68188175
C        7.20964892       1.43617232       3.70583007
H        0.18260541      -2.52806077       2.96245634
H        1.86756612      -3.17121190       3.38095961
H        3.41318568      -2.01042748       0.39136864
H        3.80174236      -2.51546769       2.03729723
H        3.19263549       0.33205484       1.75259112
H        6.67644764       1.07731105      -0.21677151
H        7.22204925       2.44837498       0.83889658
H        4.85492197       3.21314444       1.09075831
H        4.30613806       1.85638125       0.01618430
H        3.97173231       2.45756857       3.60027938
H        4.53852438       3.20307597       5.88154101
H        6.81148102       2.83343971       6.78885144
H        7.96140593       0.92786325       3.10407865
C       -0.00445707       0.01189536      -1.78238275
H       -0.66409135       0.67374010      -2.43557963
H        0.65740317      -0.63156657      -2.45157240
C       -0.90989263      -0.90692880      -0.91072765
C        0.90977584       0.90977584      -0.90977584
C       -0.00465871       1.77757030       0.00794375
H       -0.66225468       2.44313916      -0.64384735
H        0.64322798       2.43503045       0.67728295
C       -1.78241447       0.00034974      -0.00472694
H       -2.45427497      -0.65498947       0.64260836
H       -2.43311707       0.67328779      -0.65473579
C       -0.91132561       0.90220522       0.91563759
C       -0.01476271      -0.02253852       1.78660255
H       -0.67934791      -0.69751639       2.42135241
H        0.63392994       0.61504881       2.47327442
C        0.01484550      -1.77751727      -0.01636693
H        0.67870853      -2.42144646      -0.68295456
H       -0.62264859      -2.45592969       0.64226336
C        1.78714474       0.01002794       0.00389507
H        2.44202412       0.67113390       0.66197326
H        2.45385902      -0.65136977      -0.64189061
C        0.91606151      -0.90478549       0.90901405
