138
Properties=species:S:1:pos:R:3 pbc="F F F"
C        1.78363419       1.78363419      -1.78363419
C        2.97139424       1.34236615      -2.22188397
C        1.21437177       3.13353235      -2.12656559
N        1.06598961       3.91807080      -0.92525268
C        0.56071910       5.19370568      -0.96506334
O        0.24289091       5.78782095      -1.98781552
C        0.42545456       5.84227242       0.38937003
C       -0.95782718       6.34982852       0.79042254
C       -0.41369928       5.12265464       1.44719057
C        1.64414489       6.63145346       0.86186479
C        2.70820778       5.99617050       1.52825796
C        3.84058128       6.70484485       1.93951010
C        3.92562607       8.07087301       1.69100812
Br       5.45577505       9.03188395       2.24402744
C        2.89250322       8.72999768       1.03270496
C        1.76631273       8.01166095       0.61865061
H        3.34400481       0.35606696      -1.96177407
H        3.60186668       1.95480077      -2.85885350
H        0.23759329       3.03945083      -2.61384191
H        1.86940585       3.68734229      -2.80937236
H        1.22708104       3.48238366      -0.02751800
H       -1.76674407       6.23415432       0.07642017
H       -1.03635273       7.24882086       1.39120923
H       -0.11958617       5.19881442       2.48823382
H       -0.88043486       4.17693800       1.19395888
H        2.65911611       4.92743571       1.72448830
H        4.64638555       6.18069322       2.44603828
H        2.95275923       9.79578412       0.82910883
H        0.97187000       8.53522624       0.08861421
C       -1.78363419      -1.78363419      -1.78363419
C       -1.44623764      -3.05718033      -2.03222640
C       -3.03241578      -1.13086093      -2.31119301
N       -2.67840539      -0.04216630      -3.18874141
C       -3.64078011       0.72182164      -3.80052964
O       -4.84726354       0.53390303      -3.70516687
C       -3.08921744       1.84825722      -4.63739673
C       -3.55793806       3.26361267      -4.30725342
C       -2.16274092       2.85825296      -3.95727683
C       -2.81841886       1.50499007      -6.10030478
C       -1.60088505       0.92180047      -6.49703573
C       -1.35469114       0.57804008      -7.82926498
C       -2.32895752       0.81654616      -8.79307960
Br      -2.00028638       0.35152860     -10.59487378
C       -3.54474822       1.38992590      -8.43497362
C       -3.78513642       1.72431811      -7.09850475
H       -0.54113294      -3.49684835      -1.62386455
H       -2.07059453      -3.69749922      -2.64742721
H       -3.65225716      -0.74370196      -1.49492691
H       -3.64680602      -1.83592747      -2.88338700
H       -1.70981117       0.23686319      -3.26403472
H       -4.27458268       3.38512843      -3.50153582
H       -3.68694386       3.97805995      -5.11237499
H       -1.35376815       3.29515915      -4.53238544
H       -1.93216666       2.73436188      -2.90473948
H       -0.83158879       0.72358982      -5.75406456
H       -0.40540996       0.12334469      -8.09897521
H       -4.31395779       1.57460880      -9.18008553
H       -4.74743838       2.15641402      -6.82745767
C       -1.78363419       1.78363419       1.78363419
C       -1.23729789       2.62974074       2.66860574
C       -3.26568602       1.64409967       1.56468403
N       -3.68533236       0.30918733       1.91479340
C       -4.99716386      -0.07838159       1.80070584
O       -5.91422613       0.65392628       1.45037497
C       -5.24322012      -1.52250101       2.15763784
C       -5.90492544      -2.40453130       1.10118467
C       -4.45282902      -2.59179047       1.40072624
C       -5.57636492      -1.78671684       3.62408549
C       -4.55943574      -1.96366390       4.58034848
C       -4.85399986      -2.17786457       5.92978075
C       -6.18050091      -2.22135118       6.34634123
Br      -6.58247870      -2.50902639       8.17017926
C       -7.21055734      -2.04830459       5.42754319
C       -6.90643008      -1.82759824       4.08049122
H       -0.16120416       2.71036385       2.79027783
H       -1.85281246       3.27022834       3.29248016
H       -3.53193489       1.83901788       0.51993326
H       -3.83428848       2.34723501       2.18459700
H       -2.98624290      -0.38623414       2.13697394
H       -6.17924208      -1.94530378       0.15705178
H       -6.58820584      -3.18449357       1.41754664
H       -4.16078666      -3.49497087       1.92517864
H       -3.74589651      -2.28206483       0.63871259
H       -3.51728018      -1.92632715       4.27111051
H       -4.04319787      -2.30416948       6.64201209
H       -8.24962711      -2.07492394       5.74473135
H       -7.72093511      -1.67598385       3.37353077
C        1.78363419      -1.78363419       1.78363419
C        3.07124791      -1.47305168       1.99134477
C        1.10113566      -2.97575682       2.39757724
N        0.67210361      -3.87912058       1.35808891
C        0.01631271      -5.04772824       1.65544715
O       -0.21855596      -5.44834244       2.78874090
C       -0.40518458      -5.83983915       0.44370238
C       -1.88744244      -6.18103796       0.30798329
C       -1.29292585      -5.14639024      -0.59169960
C        0.61464850      -6.85863394      -0.05954887
C        1.63985645      -6.48362547      -0.94736160
C        2.59486097      -7.40251591      -1.39146084
C        2.53717043      -8.72143243      -0.95311190
Br       3.82760764      -9.96608277      -1.55005884
C        1.53794548      -9.12552517      -0.07367471
C        0.59068469      -8.19773267       0.37090571
H        3.52602548      -0.59674707       1.53907329
H        3.70505683      -2.08499999       2.62546414
H        0.22975436      -2.67262842       2.98850325
H        1.77358345      -3.52797290       3.06456414
H        0.75153445      -3.59378286       0.39166539
H       -2.55733215      -5.85243424       1.09588798
H       -2.17243640      -7.12861906      -0.13492376
H       -1.17163470      -5.40139006      -1.63876093
H       -1.58852629      -4.11622875      -0.42515819
H        1.70181242      -5.45461596      -1.29436485
H        3.37658424      -7.07657826      -2.07212202
H        1.48842518     -10.15236641       0.27864293
H       -0.17628453      -8.52173704       1.07302952
C       -0.00445707       0.01189536      -1.78238275
H       -0.66409135       0.67374010      -2.43557963
H        0.65740317      -0.63156657      -2.45157240
C       -0.90989263      -0.90692880      -0.91072765
C        0.90977584       0.90977584      -0.90977584
C       -0.00465871       1.77757030       0.00794375
H       -0.66225468       2.44313916      -0.64384735
H        0.64322798       2.43503045       0.67728295
C       -1.78241447       0.00034974      -0.00472694
H       -2.45427497      -0.65498947       0.64260836
H       -2.43311707       0.67328779      -0.65473579
C       -0.91132561       0.90220522       0.91563759
C       -0.01476271      -0.02253852       1.78660255
H       -0.67934791      -0.69751639       2.42135241
H        0.63392994       0.61504881       2.47327442
C        0.01484550      -1.77751727      -0.01636693
H        0.67870853      -2.42144646      -0.68295456
H       -0.62264859      -2.45592969       0.64226336
C        1.78714474       0.01002794       0.00389507
H        2.44202412       0.67113390       0.66197326
H        2.45385902      -0.65136977      -0.64189061
C        0.91606151      -0.90478549       0.90901405
