146
Properties=species:S:1:pos:R:3 pbc="F F F"
C        1.78363419       1.78363419      -1.78363419
C        2.97139424       1.34236615      -2.22188397
C        1.21437177       3.13353235      -2.12656559
N        1.06598961       3.91807080      -0.92525268
C        0.56071910       5.19370568      -0.96506334
O        0.24289091       5.78782095      -1.98781552
C        0.42545456       5.84227242       0.38937003
C       -0.95782718       6.34982852       0.79042254
C       -0.41369928       5.12265464       1.44719057
C        1.64414489       6.63145346       0.86186479
C        2.70820778       5.99617050       1.52825796
C        3.84058128       6.70484485       1.93951010
C        3.92562607       8.07087301       1.69100812
C        2.89250322       8.72999768       1.03270496
C        1.76631273       8.01166095       0.61865061
H        3.34400481       0.35606696      -1.96177407
H        3.60186668       1.95480077      -2.85885350
H        0.23759329       3.03945083      -2.61384191
H        1.86940585       3.68734229      -2.80937236
H        1.22708104       3.48238366      -0.02751800
H       -1.76674407       6.23415432       0.07642017
H       -1.03635273       7.24882086       1.39120923
H       -0.11958617       5.19881442       2.48823382
H       -0.88043486       4.17693800       1.19395888
H        2.65911611       4.92743571       1.72448830
H        4.64638555       6.18069322       2.44603828
H        2.95275923       9.79578412       0.82910883
H        0.97187000       8.53522624       0.08861421
C        5.09167777       8.80321245       2.11243710
C        6.06824607       9.41654673       2.46538386
Br       7.64727441      10.40825638       3.03606894
C       -1.78363419      -1.78363419      -1.78363419
C       -1.47989579      -3.07445942      -1.98128915
C       -2.99360838      -1.10951227      -2.37134907
N       -2.57740668      -0.06129128      -3.27061514
C       -3.49504273       0.71226479      -3.93671018
O       -4.70935137       0.56531791      -3.87449392
C       -2.88154193       1.79332711      -4.79014213
C       -3.31444552       3.23255370      -4.51968698
C       -1.94467171       2.79529067      -4.11238375
C       -2.57637165       1.39474744      -6.23210936
C       -1.36648255       0.76129638      -6.57093415
C       -1.08999203       0.36720884      -7.88313285
C       -2.02545899       0.60482810      -8.88486007
C       -3.23271610       1.22717861      -8.58425845
C       -3.50384150       1.61186276      -7.26734433
H       -0.60265130      -3.52879596      -1.53039858
H       -2.10505379      -3.71446681      -2.59600035
H       -3.62584405      -0.67703840      -1.58800358
H       -3.61224272      -1.81312597      -2.94075180
H       -1.59843499       0.18475662      -3.32330433
H       -4.05162716       3.40233747      -3.74170039
H       -3.39510988       3.92433707      -5.35048609
H       -1.10444656       3.18791961      -4.67446748
H       -1.75122142       2.69827525      -3.04959810
H       -0.62757695       0.56321292      -5.79769950
H       -0.14790908      -0.12539625      -8.10773516
H       -3.97190462       1.41167621      -9.35920611
H       -4.45970296       2.08234124      -7.04112031
C       -1.74376866       0.19869382     -10.23737828
C       -1.50785301      -0.14144365     -11.37011228
Br      -1.12639735      -0.69141715     -13.20164735
C       -1.78363419       1.78363419       1.78363419
C       -1.25827610       2.46644541       2.81092286
C       -3.23734791       1.83776942       1.39935239
N       -3.82894771       0.53081811       1.54954727
C       -5.15189240       0.30963629       1.25795943
O       -5.94289587       1.17409380       0.90153771
C       -5.58394153      -1.12578568       1.42020110
C       -6.20736318      -1.81331130       0.20752693
C       -4.82597857      -2.19519688       0.63098310
C       -6.10800042      -1.49911620       2.80484935
C       -5.23069506      -1.88836338       3.83378864
C       -5.69811505      -2.20468804       5.11248902
C       -7.06098531      -2.13860596       5.38311161
C       -7.95594841      -1.75555263       4.38940017
C       -7.47868406      -1.43413773       3.11477674
H       -0.20061182       2.41051880       3.05071522
H       -1.87218643       3.10577932       3.43755520
H       -3.36091867       2.16796200       0.36200536
H       -3.79802608       2.53404625       2.03404816
H       -3.23488516      -0.25911224       1.76120978
H       -6.32331588      -1.23134153      -0.70098428
H       -6.99870245      -2.53827822       0.36083467
H       -4.69001681      -3.17484347       1.07582109
H       -4.00849793      -1.89189350      -0.01406017
H       -4.16170385      -1.93899483       3.63935450
H       -4.99137711      -2.49528861       5.88495200
H       -9.02170110      -1.69549928       4.59323270
H       -8.18708894      -1.11864496       2.35003804
C       -7.54516924      -2.46269281       6.69997669
C       -7.95067328      -2.73411554       7.80285119
Br      -8.60633902      -3.17298315       9.58610599
C        1.78363419      -1.78363419       1.78363419
C        3.10682216      -1.57813158       1.85069062
C        1.06218915      -2.84996095       2.56231962
N        0.46232821      -3.79473836       1.65224652
C       -0.26019881      -4.86727107       2.11241585
O       -0.42149074      -5.14593305       3.29408507
C       -0.85918103      -5.71710527       1.02043271
C       -2.37133471      -5.92864156       1.04427196
C       -1.77731270      -5.03470343       0.00437406
C        0.01841777      -6.86597853       0.52933726
C        0.98444290      -6.66560480      -0.47392739
C        1.81179381      -7.70426805      -0.91014583
C        1.68289406      -8.96974876      -0.34715186
C        0.73937649      -9.20211600       0.64830345
C       -0.07948780      -8.15530482       1.08350605
H        3.59051481      -0.78999642       1.28133461
H        3.74252696      -2.19022925       2.48276475
H        0.27892324      -2.41738129       3.19458150
H        1.74439435      -3.40361062       3.21811553
H        0.47518126      -3.60165020       0.66015123
H       -2.93414795      -5.47279786       1.85234016
H       -2.77634555      -6.87979254       0.71781191
H       -1.77661557      -5.38840391      -1.02079391
H       -1.96699790      -3.97098477       0.09855739
H        1.10135166      -5.68029661      -0.91958474
H        2.55145948      -7.51212766      -1.68254665
H        0.63548513     -10.18598156       1.09796783
H       -0.80234745      -8.34507327       1.87575620
C        2.53485409     -10.04134477      -0.79374574
C        3.24837062     -10.93880643      -1.16776812
Br       4.40206649     -12.38992604      -1.77253066
C       -0.00445707       0.01189536      -1.78238275
H       -0.66409135       0.67374010      -2.43557963
H        0.65740317      -0.63156657      -2.45157240
C       -0.90989263      -0.90692880      -0.91072765
C        0.90977584       0.90977584      -0.90977584
C       -0.00465871       1.77757030       0.00794375
H       -0.66225468       2.44313916      -0.64384735
H        0.64322798       2.43503045       0.67728295
C       -1.78241447       0.00034974      -0.00472694
H       -2.45427497      -0.65498947       0.64260836
H       -2.43311707       0.67328779      -0.65473579
C       -0.91132561       0.90220522       0.91563759
C       -0.01476271      -0.02253852       1.78660255
H       -0.67934791      -0.69751639       2.42135241
H        0.63392994       0.61504881       2.47327442
C        0.01484550      -1.77751727      -0.01636693
H        0.67870853      -2.42144646      -0.68295456
H       -0.62264859      -2.45592969       0.64226336
C        1.78714474       0.01002794       0.00389507
H        2.44202412       0.67113390       0.66197326
H        2.45385902      -0.65136977      -0.64189061
C        0.91606151      -0.90478549       0.90901405
