158
Properties=species:S:1:pos:R:3 pbc="F F F"
C        1.78317085       1.78317085      -1.78317085
C        1.33209404       2.25540100      -2.95370386
C        3.14917700       2.08946258      -1.23391118
N        3.93719067       0.87645233      -1.19129420
C        5.29538721       0.92215623      -0.96422725
O        5.93067174       1.96741035      -0.92050003
C        5.96109080      -0.38953178      -0.75660108
C        5.32407735      -1.38052508      -0.00320274
C        5.95500966      -2.60539368       0.20823974
C        7.21888212      -2.82459520      -0.33259318
N        7.85290774      -1.86113218      -1.04969186
C        7.23541115      -0.66148279      -1.25427504
C        8.02015112       0.33147266      -2.06153524
C        7.96327467      -4.08811267      -0.15005796
C        9.37036975      -4.08901152      -0.08455037
C       10.09569395      -5.26988893       0.10283714
C        9.42738533      -6.48440287       0.22388555
C        8.03834165      -6.50913656       0.14935085
Br       7.12220939      -8.15721097       0.30084957
C        7.31125607      -5.33017115      -0.03766300
H        0.33588524       2.02302604      -3.31766103
H        1.95100609       2.88985150      -3.58092855
H        3.08473910       2.49333511      -0.21693972
H        3.67486966       2.83111197      -1.84617783
H        3.44867294      -0.00849046      -1.21508768
H        4.35519329      -1.20255841       0.45500196
H        5.46463917      -3.35870293       0.81625428
H        8.31138628       1.18568280      -1.44349892
H        7.43960965       0.67497360      -2.92320654
H        8.93944839      -0.12499753      -2.44492003
H        9.91451703      -3.14899708      -0.17735620
H       11.18113218      -5.23566030       0.15273424
H        9.99474644      -7.39935129       0.36940744
H        6.22834456      -5.38889638      -0.11304580
C       -1.78317085      -1.78317085      -1.78317085
C       -1.31467270      -2.29780921      -2.92871699
C       -3.17057051      -2.03935355      -1.26262669
N       -3.92694804      -0.80567016      -1.27231900
C       -5.29129600      -0.81019787      -1.08027681
O       -5.95501899      -1.83714747      -1.02641567
C       -5.92709476       0.52331287      -0.92437821
C       -5.28369491       1.51715227      -0.18021237
C       -5.88714938       2.76310547      -0.01733233
C       -7.13035172       3.00048005      -0.59700843
N       -7.77097363       2.03503828      -1.30553207
C       -7.18045361       0.81481643      -1.46256622
C       -7.97013795      -0.17859378      -2.26442730
C       -7.84541522       4.28722195      -0.46702669
C       -9.25321387       4.32624105      -0.43893578
C       -9.95154109       5.53003539      -0.30146218
C       -9.25458451       6.72964832      -0.19416071
C       -7.86391110       6.71647129      -0.23241443
Br      -6.90858044       8.34374740      -0.09931580
C       -7.16378262       5.51455201      -0.36951730
H       -0.30356960      -2.10101249      -3.27199022
H       -1.93378224      -2.93246968      -3.55553421
H       -3.14319183      -2.41762141      -0.23420068
H       -3.69975682      -2.78315256      -1.86925007
H       -3.41466161       0.06540212      -1.30601068
H       -4.33204743       1.32641829       0.30799623
H       -5.39284155       3.51935676       0.58380283
H       -8.29982641      -1.00828253      -1.63245906
H       -7.37683318      -0.55974069      -3.10121592
H       -8.86677495       0.29115627      -2.68375223
H       -9.81953860       3.39847842      -0.52181596
H      -11.03843256       5.52521998      -0.27952506
H       -9.80103319       7.66250075      -0.08745527
H       -6.07810697       5.54323607      -0.41762308
C       -1.78317085       1.78317085       1.78317085
C       -2.60974883       2.68916678       1.24228330
C       -1.66936680       1.54030432       3.26287964
N       -0.35322581       1.93335034       3.71836105
C       -0.07354692       2.04540377       5.06281999
O       -0.92956928       1.95597302       5.93303983
C        1.35306133       2.27098856       5.41023287
C        2.35472979       1.59309166       4.70839314
C        3.69308689       1.78938847       5.04507465
C        4.01533241       2.65862544       6.08358707
N        3.04818745       3.30675211       6.78290275
C        1.73809442       3.11222990       6.45406792
C        0.75023965       3.87743540       7.28596327
C        5.40548212       2.91804495       6.51265713
C        5.69895720       3.20463861       7.86022718
C        7.00816187       3.43849816       8.29263159
C        8.05909392       3.39667152       7.38151930
C        7.79124631       3.12814863       6.04295192
Br       9.21236479       3.08120677       4.79530686
C        6.48360215       2.89387384       5.60847623
H       -2.67513635       2.83332156       0.16811440
H       -3.24546155       3.31291291       1.86341167
H       -1.81325858       0.48019841       3.50155693
H       -2.42138582       2.10571033       3.82506330
H        0.38447487       2.00873689       3.03100815
H        2.10907994       0.88341899       3.92329387
H        4.46205271       1.23905680       4.51267787
H        0.15014875       3.19545082       7.89526593
H        0.09686875       4.48362644       6.65103210
H        1.26890260       4.55854833       7.96972517
H        4.89105286       3.24283382       8.59109519
H        7.20126129       3.65332093       9.34067800
H        9.07460959       3.57888260       7.72171470
H        6.30792592       2.70866738       4.55175253
C        1.78317085      -1.78317085       1.78317085
C        2.86371134      -2.39680949       1.28067807
C        1.36569718      -1.88238248       3.22447110
N        0.10393277      -2.58506256       3.31594187
C       -0.37453756      -3.02580566       4.53050259
O        0.27898412      -2.97544744       5.56415057
C       -1.75924400      -3.56370632       4.52369777
C       -2.74440831      -2.93689525       3.75426807
C       -4.04856592      -3.42904934       3.76089282
C       -4.35471431      -4.54074011       4.54085430
N       -3.40861746      -5.14437004       5.30571484
C       -2.13263104      -4.66048487       5.30034956
C       -1.16483625      -5.40118655       6.17680872
C       -5.71135613      -5.12213868       4.61443741
C       -6.16670679      -5.73381431       5.79880108
C       -7.45147783      -6.27729522       5.89715049
C       -8.31315289      -6.22655463       4.80569516
C       -7.88018995      -5.63860973       3.62143446
Br      -9.04064643      -5.57594703       2.12884825
C       -6.59664852      -5.09456181       3.52083463
H        3.14339746      -2.29685268       0.23632217
H        3.49942154      -3.01792639       1.90443820
H        1.23840923      -0.88826322       3.66834147
H        2.11115585      -2.41474245       3.82626116
H       -0.47046721      -2.64008273       2.48565465
H       -2.52212238      -2.04558246       3.17417284
H       -4.81230139      -2.92043000       3.18155334
H       -0.83760370      -4.77006161       7.00811008
H       -0.29801763      -5.73659931       5.59920811
H       -1.63818768      -6.29093687       6.60662170
H       -5.50829665      -5.78507429       6.66609851
H       -7.77352103      -6.73915682       6.82710185
H       -9.31037499      -6.64991348       4.88644922
H       -6.28359273      -4.66237244       2.57371427
C       -0.00445707       0.01189536      -1.78238275
H       -0.66409135       0.67374010      -2.43557963
H        0.65740317      -0.63156657      -2.45157240
C       -0.90989263      -0.90692880      -0.91072765
C        0.90977584       0.90977584      -0.90977584
C       -0.00465871       1.77757030       0.00794375
H       -0.66225468       2.44313916      -0.64384735
H        0.64322798       2.43503045       0.67728295
C       -1.78241447       0.00034974      -0.00472694
H       -2.45427497      -0.65498947       0.64260836
H       -2.43311707       0.67328779      -0.65473579
C       -0.91132561       0.90220522       0.91563759
C       -0.01476271      -0.02253852       1.78660255
H       -0.67934791      -0.69751639       2.42135241
H        0.63392994       0.61504881       2.47327442
C        0.01484550      -1.77751727      -0.01636693
H        0.67870853      -2.42144646      -0.68295456
H       -0.62264859      -2.45592969       0.64226336
C        1.78714474       0.01002794       0.00389507
H        2.44202412       0.67113390       0.66197326
H        2.45385902      -0.65136977      -0.64189061
C        0.91606151      -0.90478549       0.90901405
