130
Properties=species:S:1:pos:R:3 pbc="F F F"
C        1.79176485       1.79176485      -1.79176485
C        1.43773099       3.12019421      -2.01488528
C        2.24455169       3.92625046      -2.82169828
C        3.40423840       3.40933026      -3.41457668
C        3.74957135       2.07063252      -3.17226954
C        2.94508677       1.26295473      -2.36554802
C        4.28332562       4.28466686      -4.27991196
C        4.42962602       3.76777165      -5.69918261
O        5.33490558       2.97006312      -5.97955919
N        3.58933710       4.12071764      -6.70899987
C        2.49814969       4.98775953      -6.73418090
C        1.81192139       5.10302459      -7.94297751
C        0.71523050       5.96218420      -8.03268011
C        0.33504391       6.68404773      -6.91237479
Br      -1.13628629       7.85795942      -6.97183740
C        1.06855393       6.51753654      -5.75187184
N        2.13774876       5.68865361      -5.64593000
H        0.54022640       3.53825569      -1.56757262
H        1.95954986       4.96262767      -2.98801449
H        4.65128956       1.64807332      -3.61383975
H        3.22847724       0.22845619      -2.19279831
H        5.28837866       4.29532644      -3.83504301
H        3.97863393       5.33191715      -4.26111442
H        3.82451672       3.64674046      -7.57015940
H        2.11349706       4.53475890      -8.81717358
H        0.17464514       6.05601043      -8.97039180
H        0.81948194       7.05675126      -4.84199824
C       -1.79176485      -1.79176485      -1.79176485
C       -1.41443972      -3.10711096      -2.05125980
C       -2.22127654      -3.91316773      -2.85805615
C       -3.40435503      -3.40910754      -3.41468277
C       -3.77278429      -2.08371728      -3.13597184
C       -2.96831905      -1.27608866      -2.32918182
C       -4.28322268      -4.28473900      -4.27994276
C       -4.47138307      -3.74101883      -5.68417838
O       -5.39935146      -2.95742084      -5.92775560
N       -3.64595440      -4.05397620      -6.71912401
C       -2.53734146      -4.89631358      -6.78643507
C       -1.87530156      -4.97081454      -8.01180740
C       -0.76276093      -5.80377818      -8.14355570
C       -0.34296535      -6.54090529      -7.04759580
Br       1.15140804      -7.68096006      -7.16395851
C       -1.05440910      -6.41518239      -5.86837082
N       -2.13846743      -5.61222866      -5.72163628
H       -0.49869903      -3.51496574      -1.63238994
H       -1.91793924      -4.93931154      -3.05294124
H       -4.69270744      -1.67158103      -3.54891416
H       -3.26986558      -0.25192467      -2.12794149
H       -5.27789289      -4.32676504      -3.81409018
H       -3.95594130      -5.32526766      -4.29045655
H       -3.90988278      -3.56698581      -7.56454800
H       -2.20788879      -4.39074760      -8.86679314
H       -0.24084929      -5.86580032      -9.09439776
H       -0.77414335      -6.96811579      -4.97597230
C       -1.79176485       1.79176485       1.79176485
C       -2.22135427       1.32119764       3.03025857
C       -3.02806972       2.12810380       3.83632690
C       -3.41507558       3.40498327       3.40808649
C       -2.96625294       3.86568730       2.16053317
C       -2.15915630       3.06127806       1.35315517
C       -4.28013335       4.28273785       4.28503324
C       -5.59601861       4.66665570       3.63390597
O       -5.66800426       5.68468991       2.93183373
N       -6.73114368       3.92777521       3.76013572
C       -6.99011652       2.75775249       4.47222111
C       -8.27351825       2.22297149       4.36143375
C       -8.59568210       1.05665985       5.05775286
C       -7.62701247       0.45729798       5.84715599
Br      -8.00195515      -1.11761744       6.80917283
C       -6.37930285       1.05063212       5.90802734
N       -6.04811505       2.18435244       5.23986488
H       -1.93550177       0.33243158       3.37812137
H       -3.35657217       1.75132699       4.80229285
H       -3.24539612       4.85838024       1.80942627
H       -1.82473690       3.43543282       0.38956203
H       -3.72949085       5.21501886       4.47423839
H       -4.42985175       3.86168241       5.28013134
H       -7.49253222       4.32311828       3.22576609
H       -9.02819856       2.69606527       3.74116570
H       -9.59276444       0.63318038       4.97510254
H       -5.57981944       0.62799979       6.51041221
C        1.79176485      -1.79176485       1.79176485
C        2.65267570      -1.20441261       2.71572217
C        3.45916264      -2.01144825       3.52188953
C        3.41528285      -3.40720908       3.40565341
C        2.53600842      -3.98182044       2.47464455
C        1.72823906      -3.17729016       1.66806031
C        4.28097231      -4.28148182       4.28545031
C        5.23506200      -5.16188751       3.49963078
O        4.87566730      -6.28591064       3.12294995
N        6.49194155      -4.77271293       3.15440013
C        7.19610546      -3.60024013       3.42374453
C        8.47791685      -3.49618492       2.88382172
C        9.23560769      -2.34885533       3.12563179
C        8.69237684      -1.33731457       3.90177503
Br       9.66578898       0.23407633       4.26179789
C        7.41654944      -1.51721259       4.40420029
N        6.66573971      -2.62537039       4.18122226
H        2.70422652      -0.12399833       2.81782986
H        4.12666959      -1.54235915       4.24116328
H        2.47640555      -5.06467453       2.37212254
H        1.05647921      -3.64170791       0.95154463
H        3.61712115      -4.94991558       4.85171137
H        4.80001338      -3.71318365       5.05846847
H        6.96042896      -5.47823609       2.60275153
H        8.89827727      -4.29114134       2.27601093
H       10.23420281      -2.25980120       2.70704337
H        6.93817312      -0.76030470       5.01975362
C       -0.00445707       0.01189536      -1.78238275
H       -0.66409135       0.67374010      -2.43557963
H        0.65740317      -0.63156657      -2.45157240
C       -0.90989263      -0.90692880      -0.91072765
C        0.90977584       0.90977584      -0.90977584
C       -0.00465871       1.77757030       0.00794375
H       -0.66225468       2.44313916      -0.64384735
H        0.64322798       2.43503045       0.67728295
C       -1.78241447       0.00034974      -0.00472694
H       -2.45427497      -0.65498947       0.64260836
H       -2.43311707       0.67328779      -0.65473579
C       -0.91132561       0.90220522       0.91563759
C       -0.01476271      -0.02253852       1.78660255
H       -0.67934791      -0.69751639       2.42135241
H        0.63392994       0.61504881       2.47327442
C        0.01484550      -1.77751727      -0.01636693
H        0.67870853      -2.42144646      -0.68295456
H       -0.62264859      -2.45592969       0.64226336
C        1.78714474       0.01002794       0.00389507
H        2.44202412       0.67113390       0.66197326
H        2.45385902      -0.65136977      -0.64189061
C        0.91606151      -0.90478549       0.90901405
