133
Properties=species:S:1:pos:R:3 pbc="F F F"
C        0.00000000       0.00000000       0.00000000
O        1.78026894       5.21461644      -5.46526698
C        1.38484631       4.09402566      -5.77475984
N        0.75445798       3.23893718      -4.90110470
C        0.47515463       3.59555972      -3.52963553
C        1.09231559       2.60235264      -2.57841846
C        2.48897033       2.49803650      -2.47591239
C        3.07346994       1.59340026      -1.58738592
C        2.26904534       0.78394693      -0.78700791
C        0.88235438       0.88235438      -0.88235438
C        0.29107346       1.78197776      -1.77143272
C        1.56317346       3.52942684      -7.18631679
O        0.50845111       3.88215958      -8.08068296
C       -0.64921754       3.20685186      -7.89862405
O       -0.85288169       2.35752217      -7.04363323
C       -1.66198704       3.63621527      -8.88559233
C       -2.96139566       3.15940113      -8.75143650
N       -3.97297658       3.47367406      -9.59923154
C       -3.66798144       4.29814466     -10.62965607
C       -2.40060591       4.81906928     -10.84458187
Br      -2.06236407       5.95202981     -12.31321307
C       -1.37916606       4.48628968      -9.95933951
H        0.26370978       2.43692077      -5.29103986
H       -0.61512164       3.61226511      -3.42278425
H        0.84075115       4.60131626      -3.29612535
H        3.12742747       3.13073223      -3.09091872
H        4.15612523       1.52413053      -1.51709048
H        2.73053613       0.08573204      -0.09394203
H       -0.79258827       1.84872845      -1.83161265
H        1.69972334       2.44109085      -7.15484424
H        2.49294881       3.94307327      -7.59225951
H       -3.24214672       2.49363734      -7.93792178
H       -4.49799063       4.52826609     -11.29230378
H       -0.37844195       4.88109571     -10.11060077
O       -2.24851935      -6.33792073      -3.87371228
C       -1.31807524      -5.65032212      -4.28523445
N       -0.65768794      -4.72075944      -3.51605248
C       -0.98696645      -4.48347242      -2.12991100
C       -1.33764992      -3.03563520      -1.89980158
C       -2.49690769      -2.49070483      -2.47530669
C       -2.84167248      -1.15539715      -2.25718649
C       -2.03378528      -0.34856607      -1.45764884
C       -0.88235438      -0.88235438      -0.88235438
C       -0.52945078      -2.21568404      -1.09934913
C       -0.79798001      -5.76026585      -5.72067123
O        0.19392840      -6.77169507      -5.89352699
C        1.42054020      -6.46115041      -5.41564816
O        1.72443037      -5.41937363      -4.85333044
C        2.36972051      -7.56662655      -5.66291452
C        3.64009250      -7.48658475      -5.10294972
N        4.59935126      -8.43188986      -5.26739042
C        4.27294954      -9.50220874      -6.03056009
C        3.03337607      -9.66532129      -6.63110002
Br       2.66844157     -11.18369820      -7.68762218
C        2.06316428      -8.68460786      -6.44501955
H        0.23273106      -4.36584907      -3.85855240
H       -0.10771807      -4.76990273      -1.54230693
H       -1.81805069      -5.11746729      -1.80267478
H       -3.13965805      -3.11371222      -3.09570815
H       -3.74284690      -0.74688531      -2.70761403
H       -2.31075138       0.68838882      -1.28784764
H        0.37073467      -2.61779910      -0.64068840
H       -0.43041239      -4.78929594      -6.07595011
H       -1.64857193      -6.01863856      -6.36107109
H        3.93814829      -6.64082013      -4.48674055
H        5.06286706     -10.23957318      -6.14587312
H        1.08643268      -8.79115554      -6.90853168
O       -5.64800699       1.80481067       5.00733470
C       -5.91442698       1.48793071       3.85127412
N       -5.02882220       0.85581433       3.00986332
C       -3.69655932       0.48087396       3.42291659
C       -2.65917268       1.09553315       2.51838086
C       -2.47646374       2.48774872       2.49870675
C       -1.50832348       3.06865227       1.67728037
C       -0.70764933       2.26472481       0.86762604
C       -0.88235438       0.88235438       0.88235438
C       -1.85112416       0.29498904       1.69837074
C       -7.28031005       1.77557584       3.22303120
O       -8.24823826       0.75569034       3.46736505
C       -8.09045968      -0.37267203       2.73847072
O       -7.20098785      -0.57860932       1.92589518
C       -9.15279453      -1.34959807       3.05662410
C       -9.06155345      -2.62717273       2.51506124
N       -9.97857509      -3.60462162       2.72597554
C      -11.03613224      -3.28642742       3.51011447
C      -11.21210074      -2.03858582       4.08953032
Br     -12.72217843      -1.67898886       5.15968924
C      -10.25617350      -1.05243314       3.86272276
H       -5.39851981       0.43141713       2.16173347
H       -3.64922829      -0.61302851       3.38372794
H       -3.50100266       0.77844336       4.45874674
H       -3.09121575       3.12518976       3.13267291
H       -1.37648339       4.14776437       1.67309849
H        0.04739562       2.72299747       0.23460834
H       -1.97279091      -0.78556295       1.70052487
H       -7.18019376       1.96808592       2.14737875
H       -7.65869913       2.70335466       3.66622780
H       -8.22791441      -2.91743011       1.87892810
H      -11.75411443      -4.08881038       3.65727518
H      -10.37579723      -0.06729185       4.30474917
O        2.79694054      -3.14059769       6.52261413
C        3.04711532      -1.97390055       6.23261595
N        2.34895169      -1.25521693       5.29033123
C        1.22854109      -1.80698057       4.56482821
C        1.46151908      -1.73421664       3.07735097
C        2.47843653      -2.49999844       2.48448425
C        2.69449634      -2.45392757       1.10583221
C        1.89406043      -1.64442923       0.30151053
C        0.88235438      -0.88235438       0.88235438
C        0.66318992      -0.92057028       2.26072375
C        4.18330236      -1.19526407       6.90035066
O        3.79983563      -0.55477148       8.11668655
C        3.05066464       0.56133729       7.96693101
O        2.67991509       1.03427919       6.90263781
C        2.72721309       1.15052816       9.28313564
C        1.83526224       2.21635609       9.33053582
N        1.46952995       2.84532549      10.47572456
C        2.02578340       2.38941538      11.62345127
C        2.92628390       1.33561189      11.67237323
Br       3.66085817       0.77321416      13.31523481
C        3.28369177       0.70251271      10.48528406
H        2.47066830      -0.24472141       5.27628070
H        0.34742621      -1.22187158       4.85062993
H        1.03766394      -2.84587463       4.85465419
H        3.10517070      -3.14180992       3.10209781
H        3.48432018      -3.05320555       0.65982052
H        2.06432771      -1.61726012      -0.77137763
H       -0.13243070      -0.32213011       2.69805342
H        4.62217531      -0.47251505       6.20096808
H        4.97767011      -1.91082288       7.13978860
H        1.37112786       2.61055589       8.42884043
H        1.71562441       2.91543056      12.52238538
H        3.98942176      -0.12326703      10.50056574
