162
Properties=species:S:1:pos:R:3 pbc="F F F"
O        2.69017296       6.12452047      -6.37517101
C        2.29475033       5.00392969      -6.68466387
N        1.66436200       4.14884121      -5.81100872
C        1.38505865       4.50546374      -4.43953956
C        2.00221961       3.51225667      -3.48832249
C        3.39887435       3.40794052      -3.38581642
C        3.98337396       2.50330429      -2.49728994
C        3.17894936       1.69385096      -1.69691194
C        1.79225841       1.79225841      -1.79225841
C        1.20097749       2.69188178      -2.68133675
C        2.47307749       4.43933086      -8.09622082
O        1.41835513       4.79206361      -8.99058699
C        0.26068649       4.11675588      -8.80852807
O        0.05702233       3.26742619      -7.95353725
C       -0.75208301       4.54611929      -9.79549636
C       -2.05149163       4.06930515      -9.66134052
N       -3.06307255       4.38357808     -10.50913557
C       -2.75807742       5.20804868     -11.53956010
C       -1.49070189       5.72897331     -11.75448589
C       -0.46926204       5.39619370     -10.86924353
H        1.17361381       3.34682479      -6.20094388
H        0.29478239       4.52216914      -4.33268827
H        1.75065517       5.51122029      -4.20602937
H        4.03733149       4.04063626      -4.00082274
H        5.06602925       2.43403456      -2.42699451
H        3.64044015       0.99563606      -1.00384605
H        0.11731575       2.75863248      -2.74151667
H        2.60962736       3.35099488      -8.06474827
H        3.40285283       4.85297729      -8.50216353
H       -2.33224270       3.40354136      -8.84782581
H       -3.58808661       5.43817012     -12.20220780
H        0.53146208       5.79099974     -11.02050480
C       -1.23237057       6.59426894     -12.87614912
C       -1.01601809       7.31895403     -13.81554207
Br      -0.66619444       8.49070854     -15.33446103
O       -7.28800846      -4.67717025      -3.22468573
C       -6.63572650      -5.08152238      -2.26609501
N       -5.70347070      -4.31934821      -1.60139302
C       -5.42121337      -2.94896996      -1.95987861
C       -3.95924551      -2.76558426      -2.27796900
C       -3.40004195      -3.38538522      -3.40720412
C       -2.05099638      -3.21092544      -3.72204638
C       -1.24438534      -2.41135489      -2.91397202
C       -1.79225841      -1.79225841      -1.79225841
C       -3.13950718      -1.96542925      -1.46925958
C       -6.79694593      -6.49939729      -1.71228594
O       -7.83780666      -6.61985546      -0.74334361
C       -7.54643448      -6.11786947       0.47833351
O       -6.49832767      -5.57473502       0.79507691
C       -8.68214485      -6.31139474       1.40400696
C       -8.62007526      -5.72028419       2.66120541
N       -9.59379343      -5.83489960       3.59905194
C      -10.67515363      -6.57860912       3.26423138
C      -10.82210351      -7.20731301       2.03665921
C       -9.81214686      -7.07227426       1.08824592
H       -5.38079426      -4.64721374      -0.69337448
H       -5.71456043      -2.33114054      -1.10393883
H       -6.02471609      -2.62759998      -2.81558876
H       -4.02247187      -4.00631047      -4.05000816
H       -1.63145921      -3.69539625      -4.60020287
H       -0.19651322      -2.27570333      -3.16770571
H       -3.55240878      -1.47292179      -0.59213433
H       -5.84549963      -6.86972649      -1.31014439
H       -7.05016470      -7.15519531      -2.55263365
H       -7.76627182      -5.11840023       2.96554758
H      -11.43541185      -6.65396411       4.03708465
H       -9.90571786      -7.55855113       0.12130239
C      -11.99512529      -7.99117705       1.74825484
C      -12.97753103      -8.64766318       1.50671619
Br     -14.56599802      -9.70914573       1.11616862
O       -2.87389460       6.96071781       5.35525203
C       -2.11018735       6.09643558       5.77672095
N       -1.46826013       5.18600435       4.96994745
C       -1.61723100       5.17950562       3.53332534
C       -2.11280291       3.84076710       3.04922875
C       -3.40442184       3.40349705       3.38471239
C       -3.88153360       2.17271032       2.92972428
C       -3.07474211       1.36478870       2.13018145
C       -1.79225841       1.79225841       1.79225841
C       -1.30725226       3.02004947       2.24689428
C       -1.79766694       5.94359200       7.26737023
O       -0.72072034       6.76712633       7.71315906
C        0.51291150       6.34296201       7.35591993
O        0.76032764       5.34852743       6.68978598
C        1.54903634       7.25549353       7.88307544
C        2.86723239       7.06145949       7.48492694
N        3.90492389       7.82603644       7.90852855
C        3.60947415       8.82603845       8.77296707
C        2.32614808       9.09180085       9.22710455
C        1.27636685       8.29688646       8.77565558
H       -0.69098818       4.66274784       5.36764646
H       -0.63157468       5.40609288       3.11197224
H       -2.30279090       5.96576394       3.19935000
H       -4.04640754       4.02974940       4.00263355
H       -4.88411534       1.84720916       3.19573382
H       -3.45424507       0.41041601       1.77526118
H       -0.30524640       3.34047821       1.97174029
H       -1.61401776       4.89159981       7.51975294
H       -2.69317420       6.24031747       7.82450198
H        3.14199598       6.26702769       6.79409276
H        4.46167863       9.41794662       9.09602332
H        0.26377147       8.48598315       9.12075493
C        2.08246405      10.16678112      10.15373042
C        1.87837867      11.06707709      10.92977959
Br       1.54838987      12.52277954      12.18458546
O        7.19928117      -4.89951148       3.09107179
C        6.47410281      -5.31692084       2.19232024
N        5.54778611      -4.54011178       1.53631403
C        5.35874150      -3.13910437       1.83221608
C        3.92852158      -2.85791715       2.21636003
C        3.40121559      -3.38505022       3.40636548
C        2.08293167      -3.11923239       3.78180413
C        1.27586714      -2.31971833       2.97412679
C        1.79225841      -1.79225841       1.79225841
C        3.10836399      -2.05712173       1.40871030
C        6.52906416      -6.76885072       1.71071428
O        7.50644364      -6.99818729       0.69637480
C        7.17430815      -6.54596279      -0.53430049
O        6.14032046      -5.96270527      -0.82503995
C        8.24481089      -6.85115534      -1.50643360
C        8.14402684      -6.32473530      -2.78960809
N        9.05650514      -6.54285897      -3.76972302
C       10.11406174      -7.32699878      -3.45152915
C       10.29583717      -7.89720017      -2.20028003
C        9.34889559      -7.65613415      -1.20885455
H        5.15810010      -4.89697314       0.66630924
H        5.63611552      -2.58467319       0.92885108
H        6.02516339      -2.80714549       2.63559595
H        4.02486137      -4.00490374       4.04902539
H        1.68802361      -3.53248721       4.70654750
H        0.25240854      -2.11261988       3.27489386
H        3.49713810      -1.63542943       0.48489737
H        5.53843867      -7.10625978       1.38067206
H        6.79376579      -7.39244676       2.57178111
H        7.30756325      -5.69308414      -3.08152293
H       10.82498713      -7.48535723      -4.25805305
H        9.47043630      -8.09511869      -0.22258838
C       11.44007465      -8.72894003      -1.93096719
C       12.39837354      -9.42552215      -1.70541768
Br      13.94786179     -10.55183653      -1.34072320
C       -0.00445707       0.01189536      -1.78238275
H       -0.66409135       0.67374010      -2.43557963
H        0.65740317      -0.63156657      -2.45157240
C       -0.90989263      -0.90692880      -0.91072765
C        0.90977584       0.90977584      -0.90977584
C       -0.00465871       1.77757030       0.00794375
H       -0.66225468       2.44313916      -0.64384735
H        0.64322798       2.43503045       0.67728295
C       -1.78241447       0.00034974      -0.00472694
H       -2.45427497      -0.65498947       0.64260836
H       -2.43311707       0.67328779      -0.65473579
C       -0.91132561       0.90220522       0.91563759
C       -0.01476271      -0.02253852       1.78660255
H       -0.67934791      -0.69751639       2.42135241
H        0.63392994       0.61504881       2.47327442
C        0.01484550      -1.77751727      -0.01636693
H        0.67870853      -2.42144646      -0.68295456
H       -0.62264859      -2.45592969       0.64226336
C        1.78714474       0.01002794       0.00389507
H        2.44202412       0.67113390       0.66197326
H        2.45385902      -0.65136977      -0.64189061
C        0.91606151      -0.90478549       0.90901405
