141
Properties=species:S:1:pos:R:3 pbc="F F F"
C        0.00000000       0.00000000       0.00000000
O        1.78026894       5.21461644      -5.46526698
C        1.38484631       4.09402566      -5.77475984
N        0.75445798       3.23893718      -4.90110470
C        0.47515463       3.59555972      -3.52963553
C        1.09231559       2.60235264      -2.57841846
C        2.48897033       2.49803650      -2.47591239
C        3.07346994       1.59340026      -1.58738592
C        2.26904534       0.78394693      -0.78700791
C        0.88235438       0.88235438      -0.88235438
C        0.29107346       1.78197776      -1.77143272
C        1.56317346       3.52942684      -7.18631679
O        0.50845111       3.88215958      -8.08068296
C       -0.64921754       3.20685186      -7.89862405
O       -0.85288169       2.35752217      -7.04363323
C       -1.66198704       3.63621527      -8.88559233
C       -2.96139566       3.15940113      -8.75143650
N       -3.97297658       3.47367406      -9.59923154
C       -3.66798144       4.29814466     -10.62965607
C       -2.40060591       4.81906928     -10.84458187
C       -1.37916606       4.48628968      -9.95933951
H        0.26370978       2.43692077      -5.29103986
H       -0.61512164       3.61226511      -3.42278425
H        0.84075115       4.60131626      -3.29612535
H        3.12742747       3.13073223      -3.09091872
H        4.15612523       1.52413053      -1.51709048
H        2.73053613       0.08573204      -0.09394203
H       -0.79258827       1.84872845      -1.83161265
H        1.69972334       2.44109085      -7.15484424
H        2.49294881       3.94307327      -7.59225951
H       -3.24214672       2.49363734      -7.93792178
H       -4.49799063       4.52826609     -11.29230378
H       -0.37844195       4.88109571     -10.11060077
C       -2.14227460       5.68436492     -11.96624510
C       -1.92592212       6.40905001     -12.90563805
Br      -1.57609846       7.58080452     -14.42455700
O       -2.26140759      -6.34628128      -3.85246349
C       -1.32527076      -5.66567090      -4.26269016
N       -0.66404455      -4.73554842      -3.49490688
C       -0.99926494      -4.48933534      -2.11174960
C       -1.34358547      -3.03851944      -1.89098178
C       -2.49698736      -2.49059241      -2.47533944
C       -2.83591377      -1.15239618      -2.26594617
C       -2.02798878      -0.34560859      -1.46640282
C       -0.88235438      -0.88235438      -0.88235438
C       -0.53528491      -2.21860897      -1.09059006
C       -0.79831944      -5.78579052      -5.69480713
O        0.18918655      -6.80323676      -5.85724345
C        1.41490591      -6.49656999      -5.37459428
O        1.72130217      -5.45346615      -4.81610973
C        2.35958058      -7.60822690      -5.61117425
C        3.62743185      -7.53185582      -5.04501800
N        4.58259010      -8.48296657      -5.19955255
C        4.25457560      -9.55554193      -5.95885296
C        3.01729942      -9.71535271      -6.56499196
C        2.05126080      -8.72866501      -6.38905892
H        0.22997627      -4.38704999      -3.83459669
H       -0.12458021      -4.77725430      -1.51809322
H       -1.83532814      -5.11729797      -1.78556665
H       -3.13975071      -3.11348384      -3.09584388
H       -3.73259891      -0.74157029      -2.72317704
H       -2.30042289       0.69363949      -1.30342680
H        0.36040194      -2.62299022      -0.62516455
H       -0.42385849      -4.81860465      -6.05319530
H       -1.64691442      -6.04308365      -6.33828352
H        3.92669276      -6.68444768      -4.43165747
H        5.04122630     -10.29758347      -6.06622207
H        1.07640369      -8.83256113      -6.85709710
C        2.73672877     -10.87773844      -7.36732576
C        2.50175086     -11.85123649      -8.03928031
Br       2.12181143     -13.42530050      -9.12577400
O       -5.79192481       1.84218500       4.82604255
C       -6.01719576       1.59110542       3.64533064
N       -5.12219055       0.95643604       2.81587327
C       -3.82945203       0.50023947       3.27065837
C       -2.72342476       1.10530051       2.44436142
C       -2.47700899       2.48671514       2.49919509
C       -1.44556037       3.05761418       1.75108157
C       -0.64460698       2.25410119       0.94129202
C       -0.88235438       0.88235438       0.88235438
C       -1.91446719       0.30528289       1.62473386
C       -7.33721398       1.97155690       2.97014622
O       -8.36093750       0.98879800       3.12155816
C       -8.22004894      -0.11155443       2.34776387
O       -7.30321938      -0.32245792       1.56751225
C       -9.33953477      -1.05030862       2.57059442
C       -9.28071418      -2.30488762       1.97361541
N      -10.25012725      -3.24620506       2.09600684
C      -11.32823395      -2.91400757       2.84559291
C      -11.47474711      -1.68678750       3.47508563
C      -10.46536219      -0.73791326       3.33901420
H       -5.47003081       0.58900945       1.93263015
H       -3.82999228      -0.59177050       3.18170595
H       -3.67005255       0.74087354       4.32726667
H       -3.09164487       3.12323537       3.13419818
H       -1.26484579       4.12831706       1.80418339
H        0.15968743       2.70421500       0.36568262
H       -2.08499936      -0.76724833       1.57000180
H       -7.17745117       2.20769582       1.91051144
H       -7.69375703       2.89520793       3.43931663
H       -8.43180919      -2.60528050       1.36288370
H      -12.08806442      -3.68720571       2.92172053
H      -10.56104092       0.23072959       3.82148403
C      -12.65196133      -1.39500306       4.25137714
C      -13.63787824      -1.15063359       4.90152129
Br     -15.23202250      -0.75550882       5.95274938
O        2.63853089      -3.32387093       6.49775054
C        2.84413128      -2.13378861       6.27571192
N        2.15644600      -1.40309154       5.33496232
C        1.10006198      -1.97046804       4.52981986
C        1.39892582      -1.81341432       3.06074655
C        2.47921714      -2.50024697       2.48345511
C        2.75739804      -2.37599726       1.12086082
C        1.95669731      -1.56632806       0.31697481
C        0.88235438      -0.88235438       0.88235438
C        0.60070127      -0.99889962       2.24488305
C        3.90776534      -1.33647134       7.03468041
O        3.43628788      -0.77561943       8.25938635
C        2.64076969       0.31001857       8.12550725
O        2.29762018       0.81698815       7.06764168
C        2.22700077       0.81757941       9.45039920
C        1.28223856       1.83659145       9.50379485
N        0.83237283       2.39029706      10.65785325
C        1.35582460       1.90493010      11.80892479
C        2.30398800       0.89355795      11.85261519
C        2.74772525       0.33741048      10.65614835
H        2.22861472      -0.38852770       5.37452799
H        0.17863844      -1.44232283       4.79896645
H        0.94731471      -3.03024523       4.76063282
H        3.10712559      -3.14157268       3.10038016
H        3.59598542      -2.91466051       0.68670032
H        2.17573228      -1.47819863      -0.74372072
H       -0.24321925      -0.46091615       2.67005593
H        4.34283020      -0.56019261       6.39263563
H        4.72436309      -2.02479645       7.27912205
H        0.84215793       2.25257287       8.59982734
H        0.97808189       2.37070437      12.71520172
H        3.49188989      -0.45397640      10.66738825
C        2.82586367       0.42944785      13.11191961
C        3.26293454       0.04075565      14.16658705
Br       3.96964117      -0.58772677      15.87189511
