141
Properties=species:S:1:pos:R:3 pbc="F F F"
C        0.00000000       0.00000000       0.00000000
C        0.88132781       0.88132781      -0.88132781
C        0.51183913       2.19853721      -1.13222913
C        1.31742386       2.99717538      -1.94945658
C        2.49685076       2.50042693      -2.53394475
C        2.85187574       1.17130572      -2.24223794
C        2.05127807       0.36352604      -1.42857112
C        3.35626420       3.37887639      -3.43325784
C        3.73718569       2.84271869      -4.80505298
C        2.73388392       3.94378464      -4.69795196
N        4.34558500       4.13872598      -2.72521311
C        4.10663000       5.38343714      -2.17596925
O        3.02452335       5.96572516      -2.22390824
C        5.29770730       5.97236111      -1.41869291
N        6.47373494       6.12046739      -2.28095671
C        6.67031251       7.31401972      -2.96303859
C        7.72343473       7.49094619      -3.77559269
Br       8.00969561       9.07520681      -4.71104692
C        8.68055762       6.41919808      -3.93636578
C        8.51350807       5.24917575      -3.30444477
C        7.32721782       5.03359549      -2.43583064
O        7.12402029       3.92816616      -1.94046777
H       -0.39466286       2.61652059      -0.70345754
H        1.02639764       4.03084109      -2.13661938
H        3.76606278       0.75648049      -2.66187342
H        2.34984732      -0.66269272      -1.23265456
H        3.37625886       1.86621513      -5.10893366
H        4.71500159       3.09026372      -5.20285076
H        3.02648058       4.93914345      -5.00927579
H        1.69817581       3.70949950      -4.91410070
H        5.22329476       3.67407520      -2.49386701
H        5.53294275       5.31121527      -0.57607872
H        5.01778340       6.94877828      -1.00601380
H        5.92933610       8.09506255      -2.81332698
H        9.54045557       6.57342343      -4.58080167
H        9.20444350       4.42281235      -3.40551430
C       -0.88132781      -0.88132781      -0.88132781
C       -2.14873468      -0.44330926      -1.25056153
C       -2.95547920      -1.26004859      -2.04852803
C       -2.52023263      -2.52410402      -2.48688579
C       -1.22565668      -2.92666440      -2.11309832
C       -0.41228601      -2.11837335      -1.31271587
C       -3.41642817      -3.40793665      -3.34403362
C       -3.64650305      -4.84321857      -2.89523575
C       -4.75343241      -3.84798503      -2.77420308
N       -3.28541762      -3.17140552      -4.75270095
C       -4.00994498      -2.21666105      -5.43943035
O       -4.83128461      -1.46349703      -4.91937511
C       -3.65562005      -2.10979781      -6.92334346
N       -3.86987196      -3.37684395      -7.62844313
C       -5.10010285      -3.62389238      -8.22337559
C       -5.34837223      -4.77518472      -8.86641666
Br      -6.98990058      -5.14024783      -9.66580093
C       -4.30864629      -5.77637114      -8.95110405
C       -3.11483271      -5.57658408      -8.37571180
C       -2.84868409      -4.32071015      -7.62724972
O       -1.79198127      -4.18456186      -7.01611108
H       -2.52236089       0.52422961      -0.92718399
H       -3.94499459      -0.90827013      -2.34059340
H       -0.84688770      -3.89046599      -2.44706299
H        0.57882930      -2.46524605      -1.03339242
H       -3.18415404      -5.18978477      -1.97746883
H       -3.74230400      -5.61222978      -3.65358229
H       -5.59461239      -3.92842672      -3.45186071
H       -5.02811344      -3.51263058      -1.78103199
H       -2.51796958      -3.63245662      -5.24081076
H       -2.60458650      -1.80853537      -7.00711487
H       -4.26389731      -1.32330167      -7.38537650
H       -5.85370561      -2.84515757      -8.13886245
H       -4.50824653      -6.69870638      -9.48772776
H       -2.31558227      -6.30482780      -8.41236008
C       -0.88132781       0.88132781       0.88132781
C       -2.19593248       0.50742311       1.13924987
C       -3.00145218       1.32467469       1.93792895
C       -2.51773596       2.52619624       2.48729023
C       -1.17801358       2.86324815       2.22415768
C       -0.36519874       2.05411395       1.42406254
C       -3.41207652       3.41255123       3.34377069
C       -3.52009240       4.88559555       2.97926942
C       -4.67703893       3.97703293       2.72154865
N       -3.39171015       3.07910486       4.73870909
C       -4.21988068       2.13395275       5.31220295
O       -5.05020893       1.47237001       4.69157781
C       -3.97403879       1.90977974       6.80494280
N       -4.15485887       3.14126989       7.57903027
C       -5.40436496       3.43271068       8.11029518
C       -5.62218610       4.55516515       8.81262237
Br      -7.28756873       4.97895915       9.52942145
C       -4.52932399       5.47649166       9.03030584
C       -3.31440977       5.23333304       8.51938578
C       -3.07828085       4.01220488       7.70615821
O       -1.99345103       3.84393146       7.15527173
H       -2.60730556      -0.41028591       0.72829562
H       -4.02869243       1.02275485       2.14241083
H       -0.76247106       3.77621911       2.64572651
H        0.66246391       2.35023523       1.23203784
H       -2.97583494       5.25749269       2.11808001
H       -3.61806045       5.60982073       3.78023489
H       -5.55528498       4.07107827       3.34853657
H       -4.90468269       3.72447259       1.69262073
H       -2.63135811       3.45548687       5.30439199
H       -2.95222137       1.53353766       6.93447770
H       -4.66064466       1.13851384       7.17341698
H       -6.19827515       2.71354942       7.92590106
H       -4.70597761       6.37441419       9.61428886
H       -2.47500847       5.90216420       8.65559748
C        0.88132781      -0.88132781       0.88132781
C        0.39889331      -2.10185303       1.34185912
C        1.20678675      -2.89926059       2.15800848
C        2.50125705      -2.49611734       2.53384805
C        2.96551468      -1.26666369       2.03324103
C        2.16404395      -0.46049196       1.21883932
C        3.36366751      -3.36970149       3.43502944
C        3.97846089      -2.73373946       4.67275702
C        2.85011060      -3.70016226       4.82534766
N        4.15891513      -4.32774757       2.72286139
C        3.70946029      -5.58561507       2.37096102
O        2.58314403      -6.01308739       2.61792534
C        4.71662920      -6.40716634       1.56496578
N        5.96984090      -6.60681583       2.29850231
C        6.11508474      -7.72959056       3.10269551
C        7.23748900      -7.94736818       3.80511644
Br       7.45913647      -9.43751936       4.89929350
C        8.32396463      -6.99766618       3.71449066
C        8.21161605      -5.89614512       2.95936743
C        6.95521315      -5.62943816       2.21199264
O        6.81758480      -4.57117312       1.60389629
H       -0.59752461      -2.44499701       1.07784287
H        0.82588045      -3.85803115       2.50994650
H        3.96795280      -0.92867610       2.28778779
H        2.55038820       0.48896059       0.85838155
H        3.77447802      -1.69027835       4.88665127
H        4.96474126      -3.05887098       4.98450383
H        3.06451645      -4.68274324       5.22764013
H        1.88501187      -3.31013955       5.12662459
H        5.04661549      -4.01063367       2.33398782
H        4.91474352      -5.88323182       0.62226139
H        4.27533702      -7.37981112       1.31742734
H        5.27627301      -8.41978132       3.14167129
H        9.23684177      -7.18728325       4.27055565
H        9.00002691      -5.16040191       2.87234134
