198
Properties=species:S:1:pos:R:3 pbc="F F F"
C        1.79142826       1.79142826      -1.79142826
C        2.99638143       2.28363867      -1.29288781
C        3.80412072       3.09613717      -2.09462455
C        3.40635929       3.41202568      -3.40005376
C        2.19744589       2.89857347      -3.89460743
C        1.38731620       2.09526946      -3.09012417
C        4.22497030       4.27356249      -4.29829706
O        4.09984550       4.15251569      -5.51721926
C        5.14996852       5.32521828      -3.69203770
N        6.41697069       4.73666923      -3.21221202
C        7.25014148       5.77419708      -2.58218627
C        8.15811074       6.31832546      -3.68329384
N        7.98429558       5.41372836      -4.82386576
C        7.23584991       4.26178274      -4.32795688
S        8.41346880       2.98806715      -3.76297996
C        9.83572485       3.83380865      -4.49888844
C        9.24532209       4.92495439      -5.41115622
C        9.02681978       4.53363735      -6.87624299
C        9.00685615       5.55277773      -7.84772317
C        8.78690479       5.26169087      -9.19700410
C        8.56986212       3.94560302      -9.59156177
C        8.57146437       2.92150503      -8.65005108
C        8.79938719       3.21434074      -7.30173182
H        3.32197492       2.03515155      -0.28533884
H        4.74838713       3.44919125      -1.68993734
H        1.88162942       3.12875703      -4.91161442
H        0.45069991       1.71151703      -3.48615729
H        4.60970352       5.79394757      -2.86037010
H        5.30706232       6.11388675      -4.43814301
H        7.85934047       5.30559152      -1.79938769
H        6.66770559       6.56448333      -2.09504260
H        9.19061879       6.38866822      -3.32261569
H        7.83620830       7.32178429      -3.98171800
H        6.65018120       3.79754976      -5.12619947
H       10.49041982       3.13107433      -5.02191535
H       10.40599948       4.28601843      -3.68036501
H        9.98021356       5.74269432      -5.44577031
H        9.15147977       6.59032149      -7.55162974
H        8.77618587       6.06790190      -9.92541774
H        8.38681612       1.89276325      -8.94850702
H        8.77633397       2.38698675      -6.59785385
C        8.33466223       3.64108357     -10.97920327
C        8.13768231       3.38604853     -12.14135302
Br       7.81918245       2.97367845     -14.02045087
C       -1.79142826      -1.79142826      -1.79142826
C       -1.40452678      -2.06646045      -3.10192066
C       -2.21163885      -2.86850200      -3.91474159
C       -3.40615742      -3.40015186      -3.41212946
C       -3.77723994      -3.12689572      -2.08649114
C       -2.97544488      -2.31836218      -1.27890276
C       -4.30576522      -4.25903422      -4.23203042
O       -5.05407088      -5.05350691      -3.66200266
C       -4.32564459      -4.09262355      -5.74895636
N       -3.18965682      -4.78054727      -6.39564786
C       -3.21503733      -4.54307272      -7.84841478
C       -3.99880854      -5.70453518      -8.45638632
N       -4.17567707      -6.67468997      -7.37152267
C       -3.31433520      -6.23364376      -6.27761056
S       -1.68346847      -7.03346963      -6.44757781
C       -2.26609375      -8.17740242      -7.72492576
C       -3.80129412      -8.05671883      -7.72341974
C       -4.55495937      -9.04937413      -6.83236663
C       -5.88923060      -9.36275462      -7.15537184
C       -6.63704136     -10.24174493      -6.36681347
C       -6.06309880     -10.80974054      -5.23418756
C       -4.75095800     -10.50665227      -4.88541021
C       -4.00231415      -9.63290226      -5.68024334
H       -0.47318158      -1.66972945      -3.49955429
H       -1.87698570      -3.08531450      -4.92521553
H       -4.69891442      -3.54253552      -1.68055094
H       -3.28090996      -2.11079736      -0.25666690
H       -4.28799081      -3.01670859      -5.95932179
H       -5.29704536      -4.44301082      -6.11903590
H       -2.18401588      -4.55735047      -8.22295332
H       -3.63493300      -3.56883918      -8.12345935
H       -3.46956345      -6.10280165      -9.32953760
H       -4.98688811      -5.36636463      -8.78645786
H       -3.70833471      -6.55580989      -5.30978584
H       -1.90537274      -9.19387767      -7.54415909
H       -1.85584443      -7.83537131      -8.68116719
H       -4.13933408      -8.28418563      -8.74515849
H       -6.36020845      -8.90806713      -8.02515543
H       -7.66488105     -10.46546392      -6.63916054
H       -4.30086924     -10.93410084      -3.99311631
H       -2.98712614      -9.41115897      -5.36288946
C       -6.83163181     -11.70961117      -4.41370608
C       -7.47527821     -12.46325282      -3.72655283
Br      -8.51600000     -13.68182763      -2.61548416
C       -1.79142826       1.79142826       1.79142826
C       -1.32118987       2.22024079       3.03147724
C       -2.12733754       3.02285863       3.84468627
C       -3.40508280       3.40076039       3.41259553
C       -3.86109422       2.97364455       2.15588802
C       -3.05916364       2.16462242       1.34892377
C       -4.30769997       4.25249955       4.23663033
O       -5.17326089       4.92299768       3.67332188
C       -4.18187846       4.22795325       5.75739279
N       -3.06418993       5.06824529       6.23341673
C       -2.94265818       4.96672402       7.69714263
C       -3.77689874       6.10864634       8.27418496
N       -4.13622053       6.95408417       7.13158500
C       -3.33420530       6.48783034       6.00355388
S       -1.77697165       7.43681381       5.95073044
C       -2.35271339       8.64133591       7.17437264
C       -3.86429825       8.38998482       7.32714962
C       -4.78125468       9.22650404       6.42894140
C       -6.10643581       9.45333863       6.84758261
C       -6.99814887      10.18722407       6.06022681
C       -6.57912524      10.69359442       4.83430725
C       -5.27906792      10.47265678       4.39129578
C       -4.38648233       9.74462886       5.18434856
H       -0.32612886       1.94378010       3.37255635
H       -1.72916526       3.36131899       4.79703148
H       -4.84904713       3.26891054       1.80404320
H       -3.43025870       1.83673234       0.38138318
H       -4.02563714       3.18369772       6.05468633
H       -5.14656436       4.52699151       6.18553620
H       -1.88924051       5.10431720       7.97076196
H       -3.24425459       3.99019752       8.09277942
H       -3.21448520       6.63088531       9.05653219
H       -4.69699948       5.71952205       8.72318906
H       -3.83812227       6.68289980       5.05290836
H       -2.10569718       9.66353233       6.87417998
H       -1.83180794       8.42686824       8.11370675
H       -4.13340658       8.68244728       8.35282434
H       -6.45646639       9.04353597       7.79342865
H       -8.01531256      10.34662219       6.40757076
H       -4.94913171      10.85154127       3.42741341
H       -3.38590834       9.58188710       4.79337913
C       -7.49608492      11.44342312       4.01544103
C       -8.26403865      12.07140465       3.32964057
Br      -9.50575488      13.08679767       2.22075924
C        1.79142826      -1.79142826       1.79142826
C        2.68758366      -2.68221873       1.20310552
C        3.49271536      -3.49568745       2.00647963
C        3.40348069      -3.41300504       3.40195300
C        2.50696959      -2.50201046       3.98164674
C        1.69693067      -1.69711874       3.17866040
C        4.23451903      -4.25533583       4.30697500
O        4.46970660      -3.85315461       5.44671924
C        4.72157643      -5.61944273       3.82620534
N        5.90697056      -5.50678482       2.95209657
C        6.30425118      -6.83789914       2.46437450
C        7.34015815      -7.36339432       3.45617757
N        7.67226287      -6.22775121       4.32187562
C        7.07600444      -5.04712741       3.70245768
S        8.29766455      -4.28400192       2.58284943
C        9.65597433      -5.30761500       3.20483260
C        9.11793569      -5.98428814       4.47920886
C        9.38795418      -5.25144116       5.79730478
C        9.41724449      -6.00131990       6.98879266
C        9.63383479      -5.38652956       8.22523541
C        9.81082608      -4.00826498       8.28793585
C        9.77336033      -3.24252747       7.12713267
C        9.56415832      -3.86090328       5.89039815
H        2.77491919      -2.74663074       0.12091538
H        4.19805545      -4.16596823       1.52349205
H        2.43519390      -2.42103868       5.06576830
H        1.00287393      -1.00183740       3.64366289
H        3.89213882      -6.08880930       3.28307306
H        4.90495396      -6.24729328       4.70684483
H        6.76464968      -6.72457791       1.47509209
H        5.46053803      -7.52628397       2.34040952
H        8.19937900      -7.78236320       2.92016049
H        6.90796059      -8.15805404       4.07369597
H        6.83683375      -4.28641958       4.45067710
H       10.55897582      -4.71347087       3.37096281
H        9.87773332      -6.05711959       2.43753002
H        9.64733823      -6.94343009       4.57790988
H        9.25683078      -7.07763859       6.95896164
H        9.65100209      -5.98947863       9.12902479
H        9.89493524      -2.16323614       7.16991502
H        9.52624767      -3.22387128       5.01105561
C       10.02619386      -3.36872989       9.56002531
C       10.20656438      -2.83311925      10.62540023
Br      10.49820825      -1.96708215      12.34802137
C       -0.00445707       0.01189536      -1.78238275
H       -0.66409135       0.67374010      -2.43557963
H        0.65740317      -0.63156657      -2.45157240
C       -0.90989263      -0.90692880      -0.91072765
C        0.90977584       0.90977584      -0.90977584
C       -0.00465871       1.77757030       0.00794375
H       -0.66225468       2.44313916      -0.64384735
H        0.64322798       2.43503045       0.67728295
C       -1.78241447       0.00034974      -0.00472694
H       -2.45427497      -0.65498947       0.64260836
H       -2.43311707       0.67328779      -0.65473579
C       -0.91132561       0.90220522       0.91563759
C       -0.01476271      -0.02253852       1.78660255
H       -0.67934791      -0.69751639       2.42135241
H        0.63392994       0.61504881       2.47327442
C        0.01484550      -1.77751727      -0.01636693
H        0.67870853      -2.42144646      -0.68295456
H       -0.62264859      -2.45592969       0.64226336
C        1.78714474       0.01002794       0.00389507
H        2.44202412       0.67113390       0.66197326
H        2.45385902      -0.65136977      -0.64189061
C        0.91606151      -0.90478549       0.90901405
