169
Properties=species:S:1:pos:R:3 pbc="F F F"
C        0.00000000       0.00000000       0.00000000
C        0.88152424       0.88152424      -0.88152424
C        2.08647740       1.37373464      -0.38298378
C        2.89421669       2.18623314      -1.18472052
C        2.49645526       2.50212166      -2.49014973
C        1.28754187       1.98866944      -2.98470341
C        0.47741217       1.18536543      -2.18022014
C        3.31506628       3.36365847      -3.38839303
O        3.18994148       3.24261166      -4.60731523
C        4.24006450       4.41531426      -2.78213367
N        5.50706667       3.82676521      -2.30230800
C        6.34023746       4.86429305      -1.67228224
C        7.24820671       5.40842144      -2.77338982
N        7.07439156       4.50382433      -3.91396174
C        6.32594588       3.35187871      -3.41805286
S        7.50356478       2.07816312      -2.85307593
C        8.92582083       2.92390462      -3.58898441
C        8.33541806       4.01505036      -4.50125219
C        8.11691576       3.62373333      -5.96633896
C        8.09695213       4.64287371      -6.93781915
C        7.87700076       4.35178685      -8.28710008
C        7.65995810       3.03569899      -8.68165775
Br       7.35127584       2.63604001     -10.50283335
C        7.66156034       2.01160101      -7.74014706
C        7.88948317       2.30443672      -6.39182779
H        2.41207090       1.12524752       0.62456518
H        3.83848311       2.53928723      -0.78003332
H        0.97172540       2.21885300      -4.00171040
H       -0.45920412       0.80161300      -2.57625326
H        3.69979950       4.88404354      -1.95046607
H        4.39715829       5.20398272      -3.52823899
H        6.94943645       4.39568750      -0.88948366
H        5.75780157       5.65457930      -1.18513858
H        8.28071477       5.47876419      -2.41271167
H        6.92630428       6.41188027      -3.07181398
H        5.74027718       2.88764574      -4.21629545
H        9.58051579       2.22117030      -4.11201133
H        9.49609546       3.37611441      -2.77046099
H        9.07030954       4.83279030      -4.53586629
H        8.24157575       5.68041747      -6.64172572
H        7.86628185       5.15799787      -9.01551372
H        7.47691210       0.98285922      -8.03860300
H        7.86642995       1.47708273      -5.68794982
C       -0.88152424      -0.88152424      -0.88152424
C       -0.37911879      -1.38306469      -2.08101235
C       -1.18481879      -2.18599594      -2.89435564
C       -2.49467785      -2.49119085      -2.50285796
C       -2.98364995      -1.99121248      -1.28605229
C       -2.18162076      -1.18198436      -0.47939263
C       -3.39835693      -3.33960575      -3.32915510
O       -4.31496799      -3.94833385      -2.77656653
C       -3.20833696      -3.38646542      -4.84271005
N       -2.10937810      -4.29249531      -5.23426646
C       -1.92266972      -4.25986115      -6.69428189
C       -2.78100325      -5.39004272      -7.25897200
N       -3.22403488      -6.16929823      -6.09884452
C       -2.45020061      -5.68826065      -4.95741619
S       -0.93925333      -6.69810443      -4.79744607
C       -1.51533952      -7.92965472      -5.99371562
C       -3.00688796      -7.62242495      -6.22240770
C       -3.99597243      -8.38017088      -5.33084473
C       -5.31116913      -8.56958435      -5.79689150
C       -6.26597531      -9.23075408      -5.01915830
C       -5.92080345      -9.70036310      -3.75614829
Br      -7.20962198     -10.58580674      -2.69472049
C       -4.63195669      -9.51472958      -3.26662213
C       -3.67629688      -8.85969079      -4.04976001
H        0.64036675      -1.16339230      -2.38972769
H       -0.76240698      -2.58183698      -3.81355970
H       -3.99730643      -2.22948411      -0.96549825
H       -2.57809715      -0.79716188       0.45659688
H       -2.99459115      -2.36354004      -5.17617792
H       -4.16643599      -3.66338398      -5.29956003
H       -0.86574613      -4.45298957      -6.91587190
H       -2.16477823      -3.28974273      -7.14299849
H       -2.20972114      -5.96878052      -7.99368897
H       -3.66380916      -4.98281207      -7.76337729
H       -3.00129108      -5.82064949      -4.02227780
H       -1.32572130      -8.94723591      -5.64074022
H       -0.94691928      -7.77811888      -6.91763270
H       -3.24549083      -7.94773883      -7.24573648
H       -5.60334040      -8.18706527      -6.77331326
H       -7.27375202      -9.36258654      -5.40345488
H       -4.35925052      -9.86476522      -2.27435857
H       -2.68675198      -8.72193283      -3.62277769
C       -0.88152424       0.88152424       0.88152424
C       -0.38983961       1.35762399       2.09573223
C       -1.19569559       2.16044261       2.90903217
C       -2.49485254       2.49107042       2.50280369
C       -2.97282322       2.01658695       1.27150455
C       -2.17083106       1.20742905       0.46473764
C       -3.39818666       3.34064421       3.32828691
O       -4.29726304       3.97121004       2.77139530
C       -3.23027840       3.36220924       4.84502479
N       -2.12402883       4.24570730       5.26640375
C       -1.95980405       4.18863932       6.72836938
C       -2.80969325       5.32311121       7.29721350
N       -3.22363175       6.12604575       6.14250013
C       -2.43993055       5.65038955       5.00555736
S       -0.91195129       6.63965405       4.88319849
C       -1.48765296       7.86186900       6.08918791
C       -2.98686066       7.57375188       6.29110807
C       -3.95108817       8.35941489       5.39648499
C       -5.27019447       8.56166113       5.84578939
C       -6.20329428       9.24856730       5.06402610
C       -5.83224565       9.73159430       3.81347488
Br      -7.09169357      10.65195140       2.74650423
C       -4.53907429       9.53387137       3.34036275
C       -3.60511149       8.85300184       4.12763435
H        0.62152077       1.11809340       2.41618061
H       -0.78133747       2.53622257       3.84024361
H       -3.97790221       2.27480039       0.93958620
H       -2.55884381       0.84252384      -0.48270551
H       -3.03675221       2.33135618       5.16620073
H       -4.19093174       3.64670663       5.29174163
H       -0.90358715       4.36254541       6.96847505
H       -2.22298146       3.21572980       7.15880819
H       -2.24101338       5.88224172       8.04893553
H       -3.70592251       4.92177486       7.78230115
H       -2.97487221       5.80489313       4.06445302
H       -1.27769082       8.88160156       5.75440504
H       -0.93550032       7.68812830       7.01904223
H       -3.23598091       7.88741916       7.31556606
H       -5.58265365       8.16915390       6.81191138
H       -7.21467277       9.38983310       5.43528757
H       -4.24631892       9.89442987       2.35762553
H       -2.61140654       8.70671855       3.71333741
C        0.88152424      -0.88152424       0.88152424
C        1.98064940      -1.53530126       0.32724517
C        2.78735420      -2.34830217       1.12951400
C        2.49530787      -2.50264328       2.49077551
C        1.39379234      -1.82778589       3.03933649
C        0.58360730      -1.02390528       2.23548518
C        3.31799173      -3.35653902       3.39258703
O        3.32716415      -3.11315423       4.59954999
C        4.07803878      -4.54636484       2.81310881
N        5.33885994      -4.13384162       2.16343831
C        6.00682881      -5.30263136       1.56735258
C        6.96725718      -5.83253332       2.63022747
N        6.99163541      -4.81505926       3.68548296
C        6.30520909      -3.64384724       3.14682113
S        7.53128382      -2.55125475       2.35226526
C        8.93722998      -3.46475494       3.03672495
C        8.34437784      -4.40369290       4.10364988
C        8.31028976      -3.86076929       5.53592900
C        8.29511253      -4.78013228       6.60240017
C        8.23886507      -4.34690900       7.93011361
C        8.18310910      -2.98528242       8.20892332
Br       8.09610868      -2.39265593      10.00138458
C        8.18354784      -2.05644065       7.17331991
C        8.24763063      -2.49210790       5.84600915
H        2.22490519      -1.41340500      -0.72555695
H        3.65025757      -2.82954348       0.67800261
H        1.16183678      -1.93166601       4.09878601
H       -0.26979009      -0.51380209       2.67465015
H        3.41676376      -5.03232536       2.08521999
H        4.23667962      -5.27562497       3.61707540
H        6.57462899      -4.97060737       0.68937125
H        5.30903111      -6.07161487       1.21687348
H        7.94772482      -6.03850170       2.18596410
H        6.58690890      -6.76735015       3.05573947
H        5.84715298      -3.05256894       3.94449644
H        9.70225048      -2.78649263       3.42495432
H        9.37909564      -4.04442369       2.21915152
H        9.00156551      -5.28439163       4.15300898
H        8.31432748      -5.84956213       6.39982932
H        8.22786850      -5.07834592       8.73357901
H        8.12411236      -0.99150650       7.38275546
H        8.22954810      -1.73410612       5.06780827
