169
Properties=species:S:1:pos:R:3 pbc="F F F"
C        0.00000000       0.00000000       0.00000000
C        0.88161336       0.88161336      -0.88161336
C        1.76863021       1.78128305      -0.29408690
C        2.57402658       2.59029491      -1.10219325
C        2.50083385       2.50305838      -2.50051086
C        1.60052531       1.58988723      -3.07364587
C        0.79241257       0.78191666      -2.26780729
C        3.34132383       3.35350548      -3.33730634
N        3.41781618       3.23735205      -4.67306180
O        4.28802095       4.25518959      -5.04577208
C        4.66846372       4.88387476      -3.89695224
N        4.14028571       4.35117776      -2.81452764
C        5.60071499       6.03905262      -4.06229632
H        5.72850270       6.26489539      -5.12812066
C        6.96393556       5.78125099      -3.41054861
C        6.84955345       6.45378533      -2.04647787
C        6.00130781       7.68075424      -2.34465230
N        5.08262616       7.22930295      -3.37907031
C        3.98041642       7.88025234      -3.90522092
O        3.40582316       7.46373015      -4.91029511
C        3.43004023       9.07831836      -3.23179801
C        3.06563130       8.98140774      -1.87970828
C        2.45622859      10.05709209      -1.23157066
C        2.16345923      11.22013379      -1.93956390
C        2.49112413      11.31385776      -3.29280646
C        3.12876430      10.24948160      -3.94212509
H        1.84145095       1.86324795       0.78703496
H        3.26154684       3.29129297      -0.63249906
H        1.51573407       1.50359535      -4.15595375
H        0.10034986       0.08472352      -2.73301913
H        7.74814532       6.28560221      -3.98902984
H        7.23128749       4.72225011      -3.33551270
H        6.32325001       5.79168764      -1.34803904
H        7.82081004       6.70619710      -1.61261586
H        5.49084535       8.04984463      -1.45531999
H        6.60649818       8.49057522      -2.76716122
H        3.22812472       8.05612401      -1.33138491
H        2.18656708       9.97791620      -0.18096719
H        1.66571304      12.05003037      -1.44336037
H        2.23647181      12.22052886      -3.83760114
C        3.46568010      10.44367150      -5.32862357
C        3.74784708      10.60630553      -6.48981604
Br       4.20408722      10.86927101      -8.36736607
C       -0.88161336      -0.88161336      -0.88161336
C       -1.07299199      -2.22125354      -0.54975464
C       -1.87857582      -3.02884054      -1.35909838
C       -2.50001532      -2.50277847      -2.50160929
C       -2.29489190      -1.15000211      -2.81916440
C       -1.48780356      -0.34132560      -2.01300737
C       -3.33578642      -3.35264694      -3.34370229
N       -4.06087658      -2.89155455      -4.37579890
O       -4.65339587      -4.03355290      -4.90203386
C       -4.24188955      -5.07871524      -4.12868594
N       -3.45501818      -4.71296373      -3.13800919
C       -4.74747355      -6.42608021      -4.52851017
H       -5.28598100      -6.35406401      -5.48147374
C       -5.65131858      -7.04696702      -3.45744957
C       -4.71465034      -7.96092292      -2.67424339
C       -3.78208320      -8.49269805      -3.75193310
N       -3.63969105      -7.37651656      -4.67479181
C       -2.77584463      -7.24231552      -5.74772954
O       -2.89502477      -6.32538931      -6.55943434
C       -1.64349916      -8.18115563      -5.91550182
C       -0.73547369      -8.33507809      -4.85619554
C        0.39734402      -9.13698719      -5.00524817
C        0.65706006      -9.75341092      -6.22680606
C       -0.22194076      -9.57925582      -7.29659177
C       -1.37537716      -8.79963444      -7.14535939
H       -0.60164993      -2.64765721       0.33164319
H       -2.01909880      -4.07452441      -1.09171565
H       -2.75814464      -0.71403220      -3.70310633
H       -1.34026354       0.70198511      -2.27981410
H       -6.42291227      -7.66039928      -3.93946582
H       -6.15570606      -6.31525786      -2.81808637
H       -4.14829756      -7.37343505      -1.94124408
H       -5.24216772      -8.75637718      -2.14107810
H       -2.83014091      -8.82642273      -3.33944634
H       -4.24020627      -9.32263596      -4.30139238
H       -0.89060628      -7.80714684      -3.91788052
H        1.09053101      -9.25970073      -4.17628074
H        1.55215055     -10.35799316      -6.35326116
H        0.00581754     -10.04954447      -8.25087489
C       -2.24754279      -8.70329949      -8.28713288
C       -2.97798150      -8.62261898      -9.24336817
Br      -4.15903912      -8.49216541     -10.78951977
C       -0.88161336       0.88161336       0.88161336
C       -0.31017200       1.61307680       1.92075137
C       -1.11862969       2.41841458       2.72947048
C       -2.50074695       2.50058944       2.50306669
C       -3.05778592       1.75573905       1.45053344
C       -2.25193946       0.94785091       0.64234616
C       -3.33862174       3.33975004       3.35376387
N       -4.64160541       3.56630014       3.12032448
O       -5.03474998       4.37045068       4.18378197
C       -3.92722457       4.56730875       4.95475741
N       -2.84987509       3.98153988       4.47457614
C       -4.12358162       5.39817552       6.18030678
H       -5.19028038       5.61487427       6.31636410
C       -3.32231530       6.70393083       6.12948904
C       -2.05312890       6.38423365       6.91245410
C       -2.55706133       5.45953505       8.01011797
N       -3.62083805       4.70107168       7.36908969
C       -4.31420946       3.60334758       7.84833264
O       -5.32001765       3.17914973       7.28068104
C       -3.82504565       2.87456586       9.04054509
C       -2.51084468       2.38144219       9.03446044
C       -2.03949015       1.60845756      10.09694363
C       -2.88986013       1.28262670      11.15067008
C       -4.20834738       1.73979650      11.14964446
C       -4.67938161       2.53978901      10.10120037
H        0.75844135       1.56423686       2.11186844
H       -0.66193041       2.98352139       3.53988707
H       -4.12825373       1.79326210       1.25376734
H       -2.70502960       0.37741769      -0.16435478
H       -3.87356027       7.49309907       6.65611803
H       -3.11186384       7.06100729       5.11617917
H       -1.34219822       5.85276666       6.26801181
H       -1.55808367       7.27645508       7.30508425
H       -1.76359343       4.82614515       8.40627139
H       -3.00281972       6.02622990       8.83518499
H       -1.85576800       2.57250696       8.18735868
H       -1.01664421       1.23901358      10.08979268
H       -2.53261914       0.65935409      11.96713055
H       -4.86670700       1.45888805      11.96900677
C       -6.04043288       3.00008725      10.19745503
C       -7.18031332       3.38558702      10.27806831
Br      -9.02340359       4.00890755      10.40841316
C        0.88161336      -0.88161336       0.88161336
C        0.69167101      -0.89041284       2.26191632
C        1.50120359      -1.69622891       3.06908224
C        2.50191494      -2.49991224       2.50257591
C        2.67763243      -2.47723803       1.10918794
C        1.87127651      -1.67042668       0.30043333
C        3.34559006      -3.33494407       3.35160151
N        4.23401850      -4.22112025       2.87309128
O        4.82585095      -4.74796881       4.01516287
C        4.22874129      -4.14043211       5.08011732
N        3.29026144      -3.28519683       4.73053283
C        4.72911136      -4.54491428       6.42803829
H        5.60490633      -5.19655753       6.32005488
C        3.64952194      -5.24578136       7.26043187
C        3.08251090      -4.13233698       8.13496877
C        4.30752904      -3.28251904       8.43666628
N        5.10222314      -3.36821922       7.22055707
C        6.23681764      -2.65582302       6.87324902
O        6.91769754      -2.96572585       5.89642504
C        6.63236953      -1.45862776       7.64915930
C        5.70013124      -0.42095234       7.80566374
C        6.06110911       0.76449728       8.44827951
C        7.36731554       0.94187717       8.89771854
C        8.31057302      -0.07050399       8.71671133
C        7.94789867      -1.27370943       8.09876289
H       -0.07876007      -0.27621018       2.72021384
H        1.34563459      -1.69336391       4.14634037
H        3.45029989      -3.08476019       0.64022309
H        2.02729534      -1.66604505      -0.77524787
H        4.11653611      -5.99989780       7.90634346
H        2.87884161      -5.74551704       6.66469165
H        2.34911503      -3.54856785       7.56529381
H        2.59425744      -4.50662414       9.03874141
H        4.03979723      -2.25878369       8.69742905
H        4.89966432      -3.71225672       9.25231358
H        4.69505010      -0.51912977       7.40145377
H        5.33001445       1.55959938       8.57503540
H        7.65769015       1.87447316       9.37588678
H        9.33227473       0.09143470       9.05376178
C        8.97213114      -2.27963197       7.98621205
C        9.82992582      -3.12209211       7.89195072
Br      11.21690728      -4.48427889       7.73953813
