173
Properties=species:S:1:pos:R:3 pbc="F F F"
C        0.00000000       0.00000000       0.00000000
C        0.88175556       0.88175556      -0.88175556
C        1.83103396       1.71839749      -0.29565710
C        2.63305611       2.52936665      -1.10205749
C        2.50108999       2.48229985      -2.49451752
C        1.54308658       1.64138847      -3.07264133
C        0.72844626       0.84460429      -2.26622928
C        3.35213168       3.30330950      -3.35703516
C        4.48593001       2.94464511      -3.99577961
C        5.10433246       3.92664835      -4.97628146
C        5.31006423       3.23718338      -6.32091923
C        6.24725529       2.03953793      -6.17419401
C        6.05659928       1.27369623      -4.88492869
C        5.21312840       1.67423480      -3.91109269
N        5.11798271       0.90919693      -2.77928486
C        5.68774846      -0.31104971      -2.61073540
S        5.45704723      -1.19497242      -1.22304804
N        6.43977012      -0.78658969      -3.63196045
C        6.91434867       0.03924124      -4.72081025
H        6.79720860      -0.58631304      -5.61485225
C        8.38915915       0.36591294      -4.52217782
C        9.34689869      -0.09661401      -5.43865746
C       10.70108673       0.20411100      -5.26559715
C       11.10854655       0.96870698      -4.17399981
Br      12.93983133       1.37606524      -3.94406671
C       10.17654507       1.43418631      -3.25170693
C        8.82407433       1.13267652      -3.42469003
H        1.95602122       1.74197589       0.78364491
H        3.37241420       3.17874091      -0.63945694
H        1.42678333       1.60227781      -4.15409877
H       -0.01372236       0.19880322      -2.72715612
H        2.93498191       4.29506733      -3.52729111
H        4.46833200       4.80785799      -5.12287804
H        6.06214112       4.28995272      -4.58172274
H        5.72140751       3.94213251      -7.05207238
H        4.34222194       2.90081496      -6.71638952
H        7.28126395       2.40105456      -6.22162730
H        6.10146679       1.36939515      -7.02971914
H        4.54181749       1.22554601      -2.01269249
H        6.90340355      -1.67015045      -3.46800503
H        9.04749676      -0.69503181      -6.29696622
H       11.42834844      -0.16217334      -5.98508050
H       10.48759706       2.02828299      -2.39588989
H        8.10579723       1.50065333      -2.69420697
C       -0.88175556      -0.88175556      -0.88175556
C       -2.26375302      -0.88579835      -0.69553719
C       -3.06936864      -1.69709950      -1.49801211
C       -2.49269635      -2.48307029      -2.50214072
C       -1.10422513      -2.47412311      -2.67876814
C       -0.29692111      -1.67771628      -1.86464245
C       -3.32322530      -3.31761270      -3.37163835
C       -3.78162093      -3.03524453      -4.60948928
C       -4.48659315      -4.13381003      -5.38685908
C       -3.82359252      -4.29367258      -6.75090174
C       -3.91601625      -2.99485563      -7.55011535
C       -3.75818853      -1.75036146      -6.70667421
C       -3.65301522      -1.78341398      -5.36202670
N       -3.51769374      -0.59681449      -4.69195626
C       -3.32408077       0.61282907      -5.27618246
S       -3.10138467       1.98959907      -4.37333725
N       -3.30218053       0.64707693      -6.63003729
C       -3.77499473      -0.43936666      -7.46003878
H       -3.04682391      -0.50008635      -8.27883755
C       -5.14759010      -0.10133350      -8.02832632
C       -5.32380637       0.04802648      -9.41316225
C       -6.58155960       0.35260435      -9.94183963
C       -7.67291736       0.51150327      -9.08983925
Br      -9.37285177       0.92057170      -9.80768322
C       -7.51987480       0.37145380      -7.71401730
C       -6.26301801       0.06807260      -7.18649547
H       -2.72083844      -0.25941103       0.06589727
H       -4.14646632      -1.69510742      -1.34903831
H       -0.64437919      -3.08705784      -3.45172287
H        0.77978156      -1.68240637      -2.00961217
H       -3.50489764      -4.30454084      -2.94790187
H       -4.44700077      -5.09378656      -4.85828071
H       -5.54835410      -3.88102121      -5.50444127
H       -4.29598804      -5.10808862      -7.31153574
H       -2.76895372      -4.57076999      -6.61970271
H       -4.89222168      -2.96345702      -8.04826712
H       -3.15346261      -3.00923793      -8.33788054
H       -3.50250679      -0.59528297      -3.68226623
H       -3.21450414       1.56290739      -7.04966138
H       -4.48325010      -0.07225726     -10.09392381
H       -6.69933482       0.46433725     -11.01625801
H       -8.36610005       0.49740279      -7.04307268
H       -6.15659909      -0.03589508      -6.10816336
C       -0.88175556       0.88175556       0.88175556
C       -0.89345686       0.68884113       2.26279057
C       -1.70477315       1.49134390       3.06836319
C       -2.48302459       2.50209346       2.49278931
C       -2.46643402       2.68542469       1.10525767
C       -1.67006010       1.87135241       0.29786733
C       -3.31737742       3.37160978       3.32348916
C       -3.03123658       4.60582246       3.78929568
C       -4.12944068       5.38511383       4.49270775
C       -4.27942677       6.75312921       3.83561086
C       -2.97720597       7.54552777       3.93825348
C       -1.73607156       6.69679297       3.78235968
C       -1.77514798       5.35285035       3.67045757
N       -0.59117381       4.67765558       3.53763511
C        0.62222802       5.25689849       3.35276368
S        1.99566323       4.34843011       3.13235597
N        0.66316547       6.61066030       3.33764606
C       -0.42152664       7.44365178       3.80922174
H       -0.47470513       8.26626868       3.08477400
C       -0.08744524       8.00359950       5.18620517
C        0.06778417       9.38681580       5.36991050
C        0.36877963       9.90787622       6.63169829
C        0.51819887       9.04981269       7.71963952
Br       0.92244156       9.75737442       9.42503043
C        0.37221034       7.67545198       7.55919667
C        0.07241276       7.15553686       6.29831678
H       -0.27302059      -0.07785874       2.71919034
H       -1.70876874       1.33712630       4.14471701
H       -3.07334851       3.46359223       0.64621916
H       -1.66878387       2.02157729      -0.77812417
H       -4.30723035       2.95182253       3.49828747
H       -5.09177126       4.86143144       4.44586535
H       -3.88127436       5.49629494       5.55624727
H       -5.09340561       7.31543239       4.30677441
H       -4.55200212       6.62841573       2.77900857
H       -2.94815594       8.03876728       4.91702260
H       -2.98403106       8.33705260       3.17949742
H       -0.59447793       3.66805591       3.51752214
H        1.58144311       7.02622559       3.25647565
H       -0.04507902      10.07223632       4.53211582
H        0.48515894      10.98115039       6.75526414
H        0.49075868       6.99979291       8.40273572
H       -0.03627605       6.07825589       6.18612558
C        0.88175556      -0.88175556       0.88175556
C        0.29530831      -1.82642421       1.72335604
C        1.10173763      -2.62843165       2.53431097
C        2.49445673      -2.50112937       2.48232127
C        3.07294375      -1.54772376       1.63644887
C        2.26658946      -0.73305244       0.83963794
C        3.35687697      -3.35230520       3.30329418
C        3.99079217      -4.48931875       2.94624381
C        4.97246801      -5.10772014       3.92707411
C        6.31419414      -5.32003146       3.23394125
C        6.16056503      -6.26060436       2.03981783
C        4.86944805      -6.06824685       1.27752931
C        3.89964304      -5.22033707       1.67847578
N        2.76567612      -5.12399632       0.91679206
C        2.59133614      -5.69715003      -0.30105201
S        1.20154495      -5.46481017      -1.18123226
N        3.60858202      -6.45400721      -0.77744835
C        4.69856318      -6.92944141       0.04639557
H        5.59094773      -6.81721834      -0.58241826
C        4.49622917      -8.40253831       0.37848243
C        5.40810868      -9.36472991      -0.08389645
C        5.23165195     -10.71737223       0.22177071
C        4.14122713     -11.11882316       0.99120305
Br       3.90670317     -12.94802872       1.40523139
C        3.22346090     -10.18234100       1.45663642
C        3.39983234      -8.83141823       1.15019031
H       -0.78430960      -1.94783793       1.75082386
H        0.63885818      -3.36418686       3.18756701
H        4.15463871      -1.43505108       1.59347011
H        2.72781587       0.00553023       0.18995134
H        3.53169053      -2.93250914       4.29314068
H        5.12397100      -4.46935597       4.80574107
H        4.57599771      -6.06306769       4.29475118
H        7.04629499      -5.73146269       3.93785472
H        6.71169565      -4.35456636       2.89316441
H        6.20583030      -7.29358860       2.40452692
H        7.01438120      -6.11975235       1.36644753
H        2.00197679      -4.54433255       1.23374664
H        3.44026930      -6.91995751      -1.65896869
H        6.26543675      -9.07004351      -0.68604910
H        5.94759314     -11.44813954      -0.14447709
H        2.36857291     -10.48869935       2.05449769
H        2.67286803      -8.10959434       1.51819516
