194
Properties=species:S:1:pos:R:3 pbc="F F F"
C        1.79165958       1.79165958      -1.79165958
C        2.74093799       2.62830152      -1.20556113
C        3.54296013       3.43927067      -2.01196152
C        3.41099402       3.39220387      -3.40442155
C        2.45299061       2.55129249      -3.98254535
C        1.63835029       1.75450832      -3.17613330
C        4.26203571       4.21321353      -4.26693919
C        5.39583403       3.85454914      -4.90568363
C        6.01423649       4.83655237      -5.88618548
C        6.21996825       4.14708740      -7.23082326
C        7.15715931       2.94944195      -7.08409803
C        6.96650331       2.18360026      -5.79483272
C        6.12303243       2.58413883      -4.82099672
N        6.02788673       1.81910096      -3.68918888
C        6.59765248       0.59885432      -3.52063943
S        6.36695125      -0.28506839      -2.13295207
N        7.34967415       0.12331434      -4.54186447
C        7.82425269       0.94914527      -5.63071428
H        7.70711262       0.32359099      -6.52475627
C        9.29906317       1.27581697      -5.43208184
C       10.25680272       0.81329001      -6.34856148
C       11.61099075       1.11401503      -6.17550117
C       12.01845057       1.87861101      -5.08390383
Br      13.84973535       2.28596927      -4.85397074
C       11.08644910       2.34409033      -4.16161095
C        9.73397835       2.04258055      -4.33459405
H        2.86592525       2.65187991      -0.12625911
H        4.28231822       4.08864493      -1.54936097
H        2.33668735       2.51218183      -5.06400280
H        0.89618167       1.10870724      -3.63706015
H        3.84488594       5.20497136      -4.43719513
H        5.37823603       5.71776202      -6.03278207
H        6.97204514       5.19985675      -5.49162676
H        6.63131154       4.85203654      -7.96197640
H        5.25212596       3.81071898      -7.62629355
H        8.19116798       3.31095859      -7.13153133
H        7.01137081       2.27929918      -7.93962317
H        5.45172151       2.13545003      -2.92259651
H        7.81330757      -0.76024643      -4.37790905
H        9.95740079       0.21487221      -7.20687024
H       12.33825246       0.74773068      -6.89498452
H       11.39750109       2.93818702      -3.30579392
H        9.01570126       2.41055735      -3.60411099
C       -1.79165958      -1.79165958      -1.79165958
C       -2.81805350      -2.54022231      -1.21652483
C       -3.62035257      -3.35141549      -2.02242427
C       -3.41026964      -3.39188443      -3.40546537
C       -2.37536648      -2.63908146      -3.97238051
C       -1.56130659      -1.84271504      -3.16497028
C       -4.25895668      -4.21364955      -4.26958219
C       -5.33374943      -3.83116689      -4.99115049
C       -5.95337757      -4.83288214      -5.95071463
C       -6.04553365      -4.21183151      -7.34051376
C       -6.91878438      -2.95847188      -7.31344304
C       -6.75481978      -2.13116286      -6.05895364
C       -5.99009904      -2.52027892      -5.01779001
N       -5.91281683      -1.69763967      -3.92572007
C       -6.41968480      -0.44049969      -3.85696174
S       -6.21435902       0.50800718      -2.50848309
N       -7.08634377       0.01567282      -4.94418200
C       -7.54770572      -0.84443340      -6.01197312
H       -7.34622231      -0.27872003      -6.93051754
C       -9.04750743      -1.07833149      -5.88112307
C       -9.92569009      -0.61789643      -6.87506769
C      -11.30236195      -0.83397039      -6.76417462
C      -11.81201727      -1.51110110      -5.65784704
Br     -13.67352344      -1.80421862      -5.51193329
C      -10.95997829      -1.97274295      -4.65942915
C       -9.58497732      -1.75578873      -4.77038690
H       -3.00277484      -2.49475592      -0.14653350
H       -4.41997589      -3.93184326      -1.56850497
H       -2.19828984      -2.66871574      -5.04586640
H       -0.75917852      -1.26590584      -3.61686470
H       -3.89097127      -5.23480775      -4.36127340
H       -5.36215101      -5.75439391      -6.01223519
H       -6.95058237      -5.12016418      -5.59278210
H       -6.45637382      -4.93427711      -8.05467356
H       -5.03982859      -3.95199952      -7.69731038
H       -7.96777949      -3.26528018      -7.40059822
H       -6.68827177      -2.34765177      -8.19436961
H       -5.39842701      -2.00021268      -3.11112836
H       -7.50655538       0.93114255      -4.85555736
H       -9.54602694      -0.08710040      -7.74601590
H      -11.96706188      -0.47067847      -7.54322731
H      -11.35087028      -2.49874061      -3.79187113
H       -8.92993016      -2.11964500      -3.98079444
C       -1.79165958       1.79165958       1.79165958
C       -1.73123183       1.66453790       3.17903090
C       -2.54238912       2.46678578       3.98501743
C       -3.39339390       3.41242194       3.40180360
C       -3.44878157       3.52989394       2.00815294
C       -2.65206479       2.71533448       1.20159264
C       -4.22959115       4.28168734       4.23090993
C       -3.98175791       5.54847271       4.62583618
C       -5.08272318       6.30961854       5.34463261
C       -5.32759330       7.63646541       4.63382021
C       -4.06134892       8.49134414       4.63800624
C       -2.78951473       7.69354425       4.46187730
C       -2.76946711       6.34540911       4.41329175
N       -1.56189954       5.71926898       4.25500805
C       -0.38720293       6.34369053       3.98625277
S        1.01655628       5.48923391       3.74215730
N       -0.41164710       7.69564661       3.90755924
C       -1.51225115       8.49992732       4.39193376
H       -1.63756454       9.28375854       3.63413680
C       -1.14290633       9.13958278       5.72447287
C       -1.04565799      10.53562266       5.83737355
C       -0.71271770      11.12947133       7.05831793
C       -0.47312680      10.33200040       8.17583821
Br      -0.02586104      11.13781593       9.82599838
C       -0.56051753       8.94632781       8.08530504
C       -0.89227586       8.35371984       6.86515725
H       -1.05477258       0.94954517       3.63974652
H       -2.48999540       2.36408764       5.06624108
H       -4.11241594       4.25681927       1.54363677
H       -2.70696489       2.81394203       0.12104214
H       -5.18929407       3.82607466       4.47168369
H       -6.02009995       5.74101339       5.36766677
H       -4.79196572       6.48261389       6.38894903
H       -6.14517477       8.18295701       5.11719269
H       -5.64174488       7.44918654       3.59820707
H       -4.01132374       9.03154095       5.59079321
H       -4.14048863       9.24462485       3.84517968
H       -1.51793258       4.71075807       4.28107740
H        0.48110206       8.14825482       3.76381743
H       -1.22914105      11.17442895       4.97557323
H       -0.64218281      12.21160484       7.12718001
H       -0.37156592       8.31779476       8.95212134
H       -0.95442775       7.26848132       6.80746054
C        1.79165958      -1.79165958       1.79165958
C        1.38921178      -2.09328853       3.09230033
C        2.19891117      -2.89464699       3.90063417
C        3.39709416      -3.41355008       3.39697519
C        3.79342774      -3.10223190       2.09116881
C        2.99367727      -2.28604115       1.28927349
C        4.24455676      -4.27841824       4.21921342
C        4.29719724      -5.62719807       4.23167149
C        5.38375176      -6.30024756       5.05297502
C        6.15841096      -7.27125016       4.16821780
C        5.23048157      -8.34941685       3.61080088
C        3.85343650      -7.83929606       3.25220372
C        3.45073887      -6.57598836       3.50144075
N        2.17975662      -6.21639483       3.14002512
C        1.33024423      -6.97993656       2.40696543
S       -0.17092543      -6.42661168       1.95914868
N        1.76649944      -8.20853684       2.03981668
C        2.91756809      -8.85311117       2.63343298
H        3.43247150      -9.33206740       1.79092099
C        2.46468671      -9.92046357       3.62181171
C        2.75802457     -11.27327977       3.38734987
C        2.35043300     -12.25724373       4.29283023
C        1.64514998     -11.89642478       5.43939066
Br       1.09773717     -13.22866825       6.66326994
C        1.34070067     -10.56199574       5.68945398
C        1.74737918      -9.57968201       4.78409175
H        0.44816977      -1.71408641       3.48180809
H        1.87927931      -3.12752336       4.91352145
H        4.72688642      -3.49427279       1.69171277
H        3.31429155      -2.04900010       0.27865740
H        4.94983869      -3.71153278       4.82568096
H        6.08367738      -5.56949327       5.47560946
H        4.93145457      -6.83175625       5.90031783
H        6.97103042      -7.73887075       4.73542331
H        6.62633847      -6.72379859       3.33900143
H        5.12996888      -9.14193127       4.36175774
H        5.70130520      -8.79999055       2.72899741
H        1.83766766      -5.29607613       3.37602426
H        1.10098034      -8.78613664       1.54385322
H        3.30770312     -11.57396673       2.49747339
H        2.58647366     -13.29932967       4.09516433
H        0.78782911     -10.27354848       6.58010443
H        1.50014724      -8.53984660       4.99037576
C       -0.00445707       0.01189536      -1.78238275
H       -0.66409135       0.67374010      -2.43557963
H        0.65740317      -0.63156657      -2.45157240
C       -0.90989263      -0.90692880      -0.91072765
C        0.90977584       0.90977584      -0.90977584
C       -0.00465871       1.77757030       0.00794375
H       -0.66225468       2.44313916      -0.64384735
H        0.64322798       2.43503045       0.67728295
C       -1.78241447       0.00034974      -0.00472694
H       -2.45427497      -0.65498947       0.64260836
H       -2.43311707       0.67328779      -0.65473579
C       -0.91132561       0.90220522       0.91563759
C       -0.01476271      -0.02253852       1.78660255
H       -0.67934791      -0.69751639       2.42135241
H        0.63392994       0.61504881       2.47327442
C        0.01484550      -1.77751727      -0.01636693
H        0.67870853      -2.42144646      -0.68295456
H       -0.62264859      -2.45592969       0.64226336
C        1.78714474       0.01002794       0.00389507
H        2.44202412       0.67113390       0.66197326
H        2.45385902      -0.65136977      -0.64189061
C        0.91606151      -0.90478549       0.90901405
