181
Properties=species:S:1:pos:R:3 pbc="F F F"
C        0.00000000       0.00000000       0.00000000
C        0.88175556       0.88175556      -0.88175556
C        1.83103396       1.71839749      -0.29565710
C        2.63305611       2.52936665      -1.10205749
C        2.50108999       2.48229985      -2.49451752
C        1.54308658       1.64138847      -3.07264133
C        0.72844626       0.84460429      -2.26622928
C        3.35213168       3.30330950      -3.35703516
C        4.48593001       2.94464511      -3.99577961
C        5.10433246       3.92664835      -4.97628146
C        5.31006423       3.23718338      -6.32091923
C        6.24725529       2.03953793      -6.17419401
C        6.05659928       1.27369623      -4.88492869
C        5.21312840       1.67423480      -3.91109269
N        5.11798271       0.90919693      -2.77928486
C        5.68774846      -0.31104971      -2.61073540
S        5.45704723      -1.19497242      -1.22304804
N        6.43977012      -0.78658969      -3.63196045
C        6.91434867       0.03924124      -4.72081025
H        6.79720860      -0.58631304      -5.61485225
C        8.38915915       0.36591294      -4.52217782
C        9.34689869      -0.09661401      -5.43865746
C       10.70108673       0.20411100      -5.26559715
C       11.10854655       0.96870698      -4.17399981
C       10.17654507       1.43418631      -3.25170693
C        8.82407433       1.13267652      -3.42469003
H        1.95602122       1.74197589       0.78364491
H        3.37241420       3.17874091      -0.63945694
H        1.42678333       1.60227781      -4.15409877
H       -0.01372236       0.19880322      -2.72715612
H        2.93498191       4.29506733      -3.52729111
H        4.46833200       4.80785799      -5.12287804
H        6.06214112       4.28995272      -4.58172274
H        5.72140751       3.94213251      -7.05207238
H        4.34222194       2.90081496      -6.71638952
H        7.28126395       2.40105456      -6.22162730
H        6.10146679       1.36939515      -7.02971914
H        4.54181749       1.22554601      -2.01269249
H        6.90340355      -1.67015045      -3.46800503
H        9.04749676      -0.69503181      -6.29696622
H       11.42834844      -0.16217334      -5.98508050
H       10.48759706       2.02828299      -2.39588989
H        8.10579723       1.50065333      -2.69420697
C       12.50374984       1.27906154      -3.99882039
C       13.67223259       1.53898349      -3.85210762
Br      15.56157038       1.95925529      -3.61488548
C       -0.88175556      -0.88175556      -0.88175556
C       -0.34759256      -1.46952702      -2.02796899
C       -1.15600098      -2.27087384      -2.83760542
C       -2.49016354      -2.50316380      -2.48458003
C       -3.01742647      -1.90597359      -1.33371632
C       -2.21504857      -1.08985810      -0.53437317
C       -3.34457568      -3.36301435      -3.30488632
C       -3.63608436      -4.66827549      -3.12199488
C       -4.68858439      -5.30526928      -4.01340860
C       -5.75004764      -5.97275362      -3.14536558
C       -5.12623442      -7.06127500      -2.27347781
C       -3.75050146      -6.70977923      -1.75494352
C       -3.09442119      -5.58765817      -2.11637654
N       -1.84924129      -5.36589002      -1.59133319
C       -1.27176918      -6.10516746      -0.61049751
S        0.21884671      -5.71446987       0.01050031
N       -1.97210756      -7.16729028      -0.14574304
C       -3.11671480      -7.72593612      -0.83174925
H       -3.83092581      -7.96211726      -0.03270474
C       -2.71838326      -9.00954966      -1.54931699
C       -3.28200207     -10.23790307      -1.16903699
C       -2.92528205     -11.41871053      -1.82680231
C       -2.00115105     -11.38082140      -2.86928089
C       -1.42766925     -10.17482640      -3.25994265
C       -1.78378026      -8.99578258      -2.60187803
H        0.69423814      -1.31354593      -2.29504441
H       -0.73360600      -2.72758630      -3.72941975
H       -4.05570000      -2.07379673      -1.05366317
H       -2.63730623      -0.62935659       0.35442583
H       -3.83636438      -2.81401335      -4.10696262
H       -5.17360346      -4.56478594      -4.66067864
H       -4.21596596      -6.04262942      -4.67522119
H       -6.53790883      -6.40596237      -3.77174120
H       -6.23224770      -5.22078318      -2.50639554
H       -5.05703309      -7.98169526      -2.86521747
H       -5.79845893      -7.26949390      -1.43262825
H       -1.31567715      -4.56558676      -1.89879207
H       -1.50414149      -7.74052382       0.54340718
H       -4.00517813     -10.28703020      -0.35722283
H       -3.37182585     -12.36033025      -1.51909949
H       -0.70347046     -10.13821917      -4.07008031
H       -1.32545643      -8.05959453      -2.91560657
C       -1.63671669     -12.59807020      -3.54684487
C       -1.33150292     -13.61751608      -4.11430470
Br      -0.83799806     -15.26587383      -5.03183926
C       -0.88175556       0.88175556       0.88175556
C       -0.72212576       2.26684461       0.85611819
C       -1.52449447       3.07262894       1.66735684
C       -2.50231905       2.49233276       2.48325555
C       -2.65232940       1.10085902       2.50392796
C       -1.83800042       0.29389353       1.70738588
C       -3.37172673       3.32220314       3.31854647
C       -4.62328138       3.75162477       3.05144858
C       -5.39319305       4.46280489       4.15126433
C       -6.74096156       3.77736610       4.34983918
C       -7.56618758       3.82966915       3.06513050
C       -6.74351408       3.66387373       1.80783640
C       -5.39670717       3.58476435       1.81698438
N       -4.74668132       3.43930763       0.62047556
C       -5.34980940       3.21145352      -0.57382877
S       -4.46900262       2.97938926      -1.96326902
N       -6.70339726       3.16333869      -0.58159506
C       -7.52168237       3.64121809       0.51149970
H       -8.32502298       2.89902003       0.60170479
C       -8.12256232       4.99607849       0.15860910
C       -9.51310641       5.14320778       0.03262795
C      -10.07154870       6.38465957      -0.28541339
C       -9.24386208       7.48864995      -0.48125868
C       -7.86295049       7.36433656      -0.36484874
C       -7.30570316       6.12373603      -0.04799832
H        0.01840765       2.72608611       0.20667374
H       -1.39634171       4.15210965       1.64216069
H       -3.40457977       0.63838158       3.14019856
H       -1.96210722      -0.78506478       1.73519454
H       -2.93300552       3.53080433       4.29353050
H       -4.84591862       4.45168270       5.10146672
H       -5.53593974       5.51709463       3.88078220
H       -7.29510546       4.25467786       5.16582909
H       -6.58428105       2.73092085       4.64422452
H       -8.08353867       4.79550934       3.02489780
H       -8.33871912       3.05279496       3.10906700
H       -3.73709497       3.44316164       0.59979937
H       -7.13847410       3.05014524      -1.48736122
H      -10.17517238       4.29241788       0.18184090
H      -11.14995288       6.47995450      -0.37865179
H       -7.21091395       8.22049899      -0.51964299
H       -6.22375186       6.03971773       0.03718794
C       -9.82137810       8.76698571      -0.80673205
C      -10.30504777       9.83759192      -1.07931599
Br     -11.08710072      11.56867160      -1.52006117
C        0.88175556      -0.88175556       0.88175556
C        1.57224515      -0.31845928       1.95438413
C        2.38355825      -1.12404104       2.75688096
C        2.48182877      -2.49621465       2.49986395
C        1.78710401      -3.05114067       1.41887170
C        0.99095744      -2.24309912       0.60522328
C        3.30419145      -3.36125923       3.34702566
C        2.91069551      -4.13457533       4.38108389
C        3.92432173      -5.08025356       5.00268698
C        3.35153154      -6.49348780       5.02314751
C        2.06805894      -6.54242780       5.85050049
C        1.20181602      -5.31268922       5.70071897
C        1.57936266      -4.23126797       4.98782527
N        0.72065817      -3.16673817       4.91906816
C       -0.55521482      -3.16081007       5.38183891
S       -1.54447302      -1.83996003       5.18963585
N       -0.99459974      -4.28701131       5.99272931
C       -0.11288121      -5.33998754       6.44729383
H       -0.63726300      -6.26991207       6.19309873
C        0.06315172      -5.25579189       7.95830630
C       -0.39133863      -6.29670473       8.78357604
C       -0.22804485      -6.22857548      10.17026425
C        0.38991280      -5.11843094      10.74290961
C        0.84452497      -4.07396193       9.94395141
C        0.68029560      -4.14224772       8.55889755
H        1.48129765       0.74181647       2.17487102
H        2.91853347      -0.67944890       3.59262969
H        1.86209817      -4.11574268       1.20531905
H        0.45961043      -2.68545023      -0.23282368
H        4.34033434      -3.40346389       3.01354212
H        4.86770328      -5.08768898       4.44367577
H        4.16307561      -4.74905158       6.02168939
H        4.08464281      -7.19628959       5.43468000
H        3.14045017      -6.82227901       3.99669724
H        2.34072967      -6.65694345       6.90627270
H        1.49827772      -7.43531142       5.56699194
H        1.01122810      -2.32377677       4.44505112
H       -1.92691646      -4.24605466       6.38211992
H       -0.87631286      -7.17136448       8.35437955
H       -0.58584287      -7.04366469      10.79343377
H        1.32443546      -3.20326658      10.38406791
H        1.03793296      -3.31696460       7.94575996
C        0.55896841      -5.05128879      12.17137456
C        0.70055249      -4.99505724      13.36771397
Br       0.92948196      -4.90413559      15.30209359
