169
Properties=species:S:1:pos:R:3 pbc="F F F"
C        0.00000000       0.00000000       0.00000000
Cl       0.03978286      11.93315946       1.66819209
C        0.50520977      10.42917567       0.96816509
C        1.25659972      10.41279209      -0.20036543
C        1.62929285       9.18771684      -0.76205918
C        1.25827925       7.96828954      -0.17160241
C        0.49731538       8.01456389       1.00435154
C        0.12273924       9.23618629       1.57530892
C        1.64243337       6.68862363      -0.77684593
N        2.36010956       6.61356332      -1.91830677
N        2.29867349       5.19057154      -2.28131309
C        3.36815076       4.65185958      -3.11771007
H        4.33920054       4.81733078      -2.62925575
O        3.26417816       3.21691733      -3.35747448
C        2.48039233       2.48711447      -2.50068605
C        2.27180728       1.14911813      -2.83654970
C        1.46865673       0.34386344      -2.02823538
C        0.88264532       0.88264532      -0.88264532
C        1.09689065       2.21571580      -0.53187247
C        1.89393886       3.02657863      -1.34804481
C        2.22266785       4.44765578      -1.03391416
H        3.18952218       4.45566084      -0.50343375
C        1.24546771       5.32861865      -0.26776731
C        3.42465991       5.26915917      -4.51703631
C        4.65031771       5.37902399      -5.19442536
C        4.70880973       5.92705668      -6.47885465
C        3.53824366       6.36271995      -7.09900846
Br       3.62053326       7.11742572      -8.83227879
C        2.31086020       6.24945377      -6.45435501
C        2.25706734       5.69688772      -5.17374951
H        1.55642045      11.33415622      -0.68807186
H        2.21151214       9.17901702      -1.68202697
H        0.18234241       7.09416272       1.48626588
H       -0.46646844       9.24187059       2.48585738
H        2.72712741       0.74622227      -3.73619468
H        1.30276702      -0.69284158      -2.30374224
H        0.64486282       2.63039273       0.36430919
H        0.19819705       5.11813929      -0.51634845
H        1.38954571       5.21889210       0.81156667
H        5.56315448       5.04223838      -4.71037566
H        5.66795166       6.01387627      -6.97894832
H        1.39292839       6.59313724      -6.91864043
H        1.30372645       5.62308871      -4.64967997
Cl      -2.92551578       3.70631236     -11.08554682
C       -2.87012516       2.63844511      -9.73454029
C       -3.70870385       1.53149379      -9.69254717
C       -3.65767751       0.67053767      -8.59192904
C       -2.77667959       0.90080540      -7.52229701
C       -1.94506931       2.02686358      -7.58932199
C       -1.98705367       2.89202711      -8.68859006
C       -2.74123065      -0.00079316      -6.36587912
N       -3.54276492      -1.08302716      -6.26618757
N       -3.35496401      -1.53528177      -4.88031233
C       -3.62072531      -2.93932305      -4.57767206
H       -2.99259417      -3.58032982      -5.21286308
O       -3.32980327      -3.31112511      -3.19764158
C       -2.50096821      -2.48615382      -2.48107081
C       -2.35899574      -2.77497069      -1.12350868
C       -1.55046372      -1.97045717      -0.31983466
C       -0.88264532      -0.88264532      -0.88264532
C       -1.00802442      -0.59463645      -2.24181806
C       -1.82723477      -1.39515622      -3.04617131
C       -1.98791707      -1.19971271      -4.51660801
H       -1.26507461      -1.86262246      -5.02091969
C       -1.88744604       0.18564577      -5.14005340
C       -5.08171005      -3.34670365      -4.78244170
C       -5.40525996      -4.66122872      -5.15727838
C       -6.73766520      -5.04592527      -5.33113059
C       -7.75816839      -4.11858220      -5.12322147
Br      -9.56092088      -4.63673304      -5.37258384
C       -7.46298171      -2.81554172      -4.73614556
C       -6.13107390      -2.43763651      -4.55899416
H       -4.40630670       1.32473082     -10.49707265
H       -4.32187955      -0.19152777      -8.55914881
H       -1.25695105       2.24523482      -6.77852302
H       -1.33195723       3.75604001      -8.71362755
H       -2.89221097      -3.61960033      -0.69773306
H       -1.45519018      -2.19608961       0.73761211
H       -0.48139989       0.24885945      -2.67840592
H       -2.30508637       0.97169426      -4.49929268
H       -0.84722695       0.42854063      -5.37818481
H       -4.61015081      -5.38345808      -5.32215963
H       -6.96443967      -6.06327158      -5.63306499
H       -8.24436809      -2.07964160      -4.58069636
H       -5.88624061      -1.41316595      -4.27708857
Cl      -5.52481297       9.57458009      -4.79464283
C       -5.09561117       8.44086933      -3.57026015
C       -5.40616749       8.70581465      -2.24222491
C       -5.05343054       7.78058034      -1.25494201
C       -4.38761532       6.58586300      -1.57530712
C       -4.08347559       6.34627032      -2.92221818
C       -4.43575562       7.26516407      -3.91730308
C       -4.00948796       5.62864345      -0.53022848
N       -4.27395324       5.84114913       0.77687728
N       -3.51988125       4.78444624       1.46623062
C       -3.97885863       4.36948981       2.78937197
H       -5.02366102       4.03220761       2.72991843
O       -3.21792794       3.26267451       3.35796752
C       -2.47748299       2.49472273       2.49598712
C       -1.63997624       1.54147341       3.07602547
C       -0.83740040       0.73433708       2.26901808
C       -0.88264532       0.88264532       0.88264532
C       -1.72717449       1.82377743       0.29352701
C       -2.52462700       2.64077847       1.10315683
C       -3.49450799       3.64082945       0.56890035
H       -4.48134486       3.15130765       0.51596426
C       -3.23917050       4.35429843      -0.75161526
C       -3.89164488       5.47422441       3.84498610
C       -4.80299613       5.50737325       4.91339768
C       -4.72083775       6.50350872       5.89037460
C       -3.71963644       7.47081275       5.80952288
Br      -3.61804052       8.82716938       7.12502787
C       -2.79611331       7.44898767       4.76956801
C       -2.87933519       6.44922395       3.79914543
H       -5.91429131       9.62048394      -1.95612672
H       -5.29164162       7.99542788      -0.21451338
H       -3.56105690       5.43915048      -3.20996814
H       -4.18758898       7.05365401      -4.95169823
H       -1.60873924       1.44381284       4.15699228
H       -0.18048219       0.00337333       2.72981217
H       -1.76522573       1.93212030      -0.78639966
H       -2.17753591       4.57343754      -0.91828865
H       -3.62233306       3.76502068      -1.59048261
H       -5.58512495       4.75540894       4.97523464
H       -5.44285349       6.51756027       6.70036248
H       -2.01808020       8.20002618       4.68659968
H       -2.17457423       6.43467348       2.96724742
Cl      11.37574365      -2.22164722      -3.29264063
C        9.97538825      -2.28144676      -2.29061467
C        9.92290614      -3.17413536      -1.22728426
C        8.78221594      -3.21652439      -0.41967146
C        7.68271401      -2.37609300      -0.66063581
C        7.76140096      -1.48825814      -1.74213137
C        8.90049845      -1.43670510      -2.55358693
C        6.48521966      -2.43860719       0.18407608
N        6.37451221      -3.29581517       1.22165228
N        4.96156506      -3.19506187       1.61393118
C        4.60721882      -3.54288583       2.98761577
H        5.18043545      -2.91791841       3.68743321
O        3.19881254      -3.33504482       3.30471261
C        2.48180596      -2.50117113       2.48521575
C        1.10695590      -2.43684078       2.71367844
C        0.30308369      -1.62827883       1.90939304
C        0.88264532      -0.88264532       0.88264532
C        2.25825424      -0.93038459       0.65584009
C        3.06351165      -1.74937384       1.45567682
C        4.54754510      -1.83167617       1.32501652
H        4.98453493      -1.11937724       2.04470461
C        5.22916844      -1.63474061      -0.02205537
C        4.86391077      -5.01090310       3.33604152
C        5.19248789      -5.38046648       4.65081269
C        5.41310900      -6.72052900       4.98108306
C        5.29869732      -7.70309328       3.99818146
Br       5.61141531      -9.51543317       4.44338929
C        4.95875945      -7.36295930       2.69295023
C        4.73455473      -6.02387840       2.36927143
H       10.75004282      -3.84278581      -1.01418010
H        8.74181134      -3.92284405       0.40790073
H        6.92900885      -0.82879579      -1.96756539
H        8.93371337      -0.73973569      -3.38390429
H        0.66886588      -3.02991960       3.51075888
H       -0.76711218      -1.59348065       2.08729921
H        2.70740097      -0.34343337      -0.13988798
H        4.64686751      -2.04287219      -0.85705490
H        5.42726021      -0.57394099      -0.20433007
H        5.28452923      -4.61476775       5.41647154
H        5.67806077      -6.98241718       6.00029830
H        4.87609496      -8.11385965       1.91475145
H        4.48903582      -5.74269200       1.34476731
