141
Properties=species:S:1:pos:R:3 pbc="F F F"
C        0.00000000       0.00000000       0.00000000
O        2.01725088       6.69668707      -5.21126802
C        3.15392506       6.28134206      -5.44042031
N        3.65168056       5.14189164      -4.84620753
N        2.83919491       4.41154768      -3.97872398
C        3.39188440       3.30850768      -3.36153875
O        4.56487981       2.97844444      -3.52932004
C        2.49166670       2.49669312      -2.49814233
C        2.81660054       1.14742342      -2.29599167
C        2.00962478       0.33839240      -1.49310026
C        0.88168664       0.88168664      -0.88168664
C        0.55617603       2.22635957      -1.06236131
C        1.36165897       3.03754931      -1.86900946
C        4.17885585       7.07732303      -6.25121421
N        5.31090956       6.29575985      -6.71711615
C        5.39300530       5.83123949      -8.01444382
O        4.50604852       6.02377788      -8.83811973
C        6.61986201       5.12534470      -8.31175072
C        7.15772855       4.70530627      -9.51396687
C        8.37649020       4.05232748      -9.20981689
C        8.50558345       4.10095448      -7.84034856
O        7.45592764       4.76524506      -7.28590295
H        4.57801440       4.76568080      -5.04297739
H        1.85050676       4.65264823      -3.97074441
H        3.70030252       0.72140090      -2.76831966
H        2.27203934      -0.70652584      -1.35057988
H       -0.31645597       2.65286515      -0.57361712
H        1.10478764       4.08828701      -1.96892770
H        4.57607118       7.86807111      -5.60685356
H        3.66308369       7.53488634      -7.10146611
H        6.11097589       6.14072980      -6.11307422
H        6.71389935       4.86292751     -10.48774905
H        9.06852610       3.59651773      -9.90468815
C        9.59465449       3.53094509      -7.09027286
C       10.50675149       3.05356222      -6.46208446
Br      11.98153520       2.28167451      -5.44635695
O       -4.79476655      -6.95268541      -2.17775401
C       -4.96310354      -6.57471989      -3.33786399
N       -4.48115884      -5.36626506      -3.79235583
N       -3.75190043      -4.55096244      -2.92660370
C       -3.33415069      -3.32534147      -3.40243868
O       -3.60856294      -2.92973860      -4.53434274
C       -2.49370516      -2.49942039      -2.49337661
C       -1.63381676      -1.55442241      -3.07177646
C       -0.82391802      -0.74969838      -2.26750105
C       -0.88168664      -0.88168664      -0.88168664
C       -1.74424705      -1.80724552      -0.29340433
C       -2.55396465      -2.61654866      -1.09770444
C       -5.87009869      -7.31157175      -4.32572264
N       -5.66766765      -6.94079256      -5.71532534
C       -4.93234169      -7.72562182      -6.58072510
O       -4.38388536      -8.76152716      -6.22253361
C       -4.89105380      -7.22784083      -7.93806279
C       -4.45122219      -7.81707015      -9.10870935
C       -4.63514065      -6.86410512     -10.13938880
C       -5.16453692      -5.74561455      -9.53673502
O       -5.34160537      -5.96028754      -8.20518273
H       -4.58485079      -5.04726360      -4.75455820
H       -3.44930788      -4.97314383      -2.05144770
H       -1.59033701      -1.44543580      -4.15425026
H       -0.15907863      -0.02581813      -2.73119661
H       -1.79880095      -1.89981853       0.78859318
H       -3.23951269      -3.30733503      -0.61515463
H       -6.90754352      -7.06861542      -4.07483691
H       -5.71428204      -8.38750475      -4.19764936
H       -6.13428862      -6.12769059      -6.10280070
H       -4.05181865      -8.81870585      -9.19405141
H       -4.40181424      -6.97880251     -11.18911524
C       -5.48819292      -4.51564702     -10.21203250
C       -5.75925482      -3.48554922     -10.77759413
Br      -6.19753900      -1.81996819     -11.69205946
O       -7.08420389       4.53554223       2.30545985
C       -6.56322607       4.98575798       3.32670337
N       -5.29204382       4.62744968       3.72028622
N       -4.55175515       3.75033798       2.92737343
C       -3.30560857       3.37304444       3.38327782
O       -2.85419731       3.75745562       4.46099135
C       -2.49756848       2.49735527       2.49157839
C       -1.10248777       2.52458472       2.63294314
C       -0.29411395       1.72187975       1.82512374
C       -0.88168664       0.88168664       0.88168664
C       -2.26910009       0.83392679       0.74187002
C       -3.08035078       1.63980576       1.54806121
C       -7.33152199       5.83077655       4.34509453
N       -6.48799266       6.56014106       5.27565184
C       -6.21770465       7.90446242       5.11652155
O       -6.64647600       8.55267361       4.16879652
C       -5.41051161       8.47302895       6.17341686
C       -5.10991044       9.78706266       6.48002859
C       -4.26493560       9.75813132       7.61556764
C       -4.08921783       8.42931241       7.92835625
O       -4.79371402       7.64093415       7.07242748
H       -4.83201719       5.00910373       4.54555166
H       -4.91600374       3.56193159       1.99596407
H       -0.64077259       3.17633672       3.37291376
H        0.78557413       1.75834136       1.94332613
H       -2.72736668       0.16769477       0.01496485
H       -4.15859308       1.56167405       1.44173522
H       -7.95730102       5.15593479       4.93776004
H       -7.97549069       6.52636612       3.79757934
H       -6.14044788       6.10914385       6.11518817
H       -5.46919389      10.65374222       5.94163980
H       -3.83263517      10.60294340       8.13415341
C       -3.27525205       7.93302455       9.00759584
C       -2.59355572       7.51738347       9.91145899
Br      -1.49131040       6.84532699      11.37292926
O        7.04181612      -2.25963507       4.62375479
C        6.62972524      -3.39859462       4.84736756
N        5.38931866      -3.82544859       4.42501247
N        4.57891887      -2.95673972       3.69380797
C        3.32295493      -3.40203071       3.33694519
O        2.89810004      -4.50845393       3.66609032
C        2.49942461      -2.49358502       2.49349252
C        1.50403258      -3.06704721       1.68893584
C        0.69910447      -2.26295292       0.87906005
C        0.88168664      -0.88168664       0.88168664
C        1.85810869      -0.29755338       1.68923484
C        2.66760259      -1.10184533       2.49876983
C        7.36395542      -4.38015782       5.76327984
N        6.93749018      -5.76159687       5.62469851
C        7.66416774      -6.68027110       4.89424977
O        8.69136506      -6.37949542       4.29708564
C        7.11786056      -8.01920621       4.91989065
C        7.64922409      -9.22524250       4.50253509
C        6.66798120     -10.21346421       4.75718916
C        5.59134904      -9.55228778       5.30324966
O        5.85894647      -8.22403431       5.42409486
H        5.04071296      -4.77116953       4.57479009
H        5.02027747      -2.10869283       3.34492911
H        1.35559392      -4.14569638       1.68873278
H       -0.06432675      -2.72305586       0.25736425
H        1.99054105       0.78160629       1.70109154
H        3.39939795      -0.62098075       3.14162365
H        7.16787482      -4.08432322       6.79879781
H        8.43733823      -4.29687579       5.56522212
H        6.12880467      -6.10260087       6.13337437
H        8.63204618      -9.36095198       4.07157775
H        6.73718115     -11.27421452       4.55833631
C        4.35102211     -10.17059472       5.69425561
C        3.31224831     -10.68842677       6.02172309
Br       1.63263893     -11.52571741       6.55121031
