153
Properties=species:S:1:pos:R:3 pbc="F F F"
C        0.00000000       0.00000000       0.00000000
C        0.88197119       0.88197119      -0.88197119
C        0.37828328       1.38787009      -2.07768272
C        1.18430142       2.19715802      -2.88149151
C        2.49646207       2.50949180      -2.49388885
C        2.99080142       1.98316297      -1.29061233
C        2.18508875       1.17416268      -0.48537213
C        3.37010385       3.38406200      -3.37116768
N        4.10844725       2.61108052      -4.35964781
C        5.37825209       2.15490931      -3.99662376
O        5.92172042       2.39004418      -2.91968312
C        6.00835740       1.38819283      -5.01324988
N        7.23657845       0.78105238      -5.07561272
C        8.24936147       0.79293088      -4.03820051
C        9.10690545       2.03656252      -4.10492558
O        9.35327400       2.61659582      -5.16284198
C        9.70400826       2.51254653      -2.80831978
C        7.32761766       0.19906206      -6.31926009
Br       8.78802443      -0.76455221      -6.99275878
N        6.23430682       0.40098815      -7.02905462
C        5.43608889       1.15057928      -6.22461963
N        4.20069258       1.65387792      -6.55277434
C        3.65470336       1.42436376      -7.87880067
C        3.50014457       2.41619414      -5.61665948
O        2.39985343       2.90934945      -5.88096595
H       -0.63645416       1.16096366      -2.39395564
H        0.77939398       2.58477377      -3.81540843
H        4.00774641       2.20321507      -0.96968441
H        2.58183928       0.77965250       0.44647751
H        4.06762683       3.94783084      -2.73914236
H        2.74773917       4.13976380      -3.86548778
H        8.88492735      -0.09097724      -4.13508616
H        7.74376344       0.72883980      -3.07088499
H        8.90479712       2.79938476      -2.12068953
H       10.33876481       3.38425880      -2.99395842
H       10.31454714       1.71843927      -2.37154789
H        2.67153365       1.88578932      -8.00094676
H        3.55992291       0.34712035      -8.04614901
H        4.33468970       1.85291960      -8.62210986
C       -0.88197119      -0.88197119      -0.88197119
C       -0.73916882      -0.83812179      -2.26654548
C       -1.54352617      -1.64763502      -3.07178976
C       -2.49212978      -2.50876932      -2.49894362
C       -2.62911954      -2.53290852      -1.10254866
C       -1.82443513      -1.72413650      -0.29605193
C       -3.36686437      -3.38229456      -3.37617460
N       -4.58998240      -2.70568248      -3.78351069
C       -5.70961635      -2.85846179      -2.96170702
O       -5.73881945      -3.54790695      -1.94472131
C       -6.84475275      -2.14041930      -3.42462805
N       -8.12255585      -2.03247891      -2.93820878
C       -8.64350639      -2.68440103      -1.75258544
C       -9.11053900      -4.09244515      -2.04540940
O       -9.56785545      -4.42580279      -3.13905356
C       -9.04443263      -5.07381425      -0.90662769
C       -8.81144628      -1.22264136      -3.81185218
Br     -10.61353050      -0.72255458      -3.68014593
N       -8.04278359      -0.81734227      -4.80422374
C       -6.83978523      -1.40323729      -4.56826528
N       -5.72583781      -1.31424233      -5.36726471
C       -5.78429830      -0.56411934      -6.60945015
C       -4.55846205      -1.98157613      -4.99296000
O       -3.54440500      -1.94968783      -5.69607600
H       -0.00784011      -0.18094922      -2.72967582
H       -1.42367385      -1.60245150      -4.15345084
H       -3.36249477      -3.18597918      -0.63217194
H       -1.93955297      -1.75963202       0.78417071
H       -3.61142568      -4.30609105      -2.83708330
H       -2.79579559      -3.70042473      -4.25677043
H       -9.47658917      -2.10286042      -1.34958669
H       -7.85371609      -2.69322229      -0.99654985
H       -8.00373336      -5.21564159      -0.60549646
H       -9.45281153      -6.03700938      -1.22716112
H       -9.63603731      -4.70207710      -0.06641990
H       -4.83095333      -0.58382413      -7.14349227
H       -6.04116397       0.47635792      -6.38838622
H       -6.55289778      -1.00306228      -7.25375910
C       -0.88197119       0.88197119       0.88197119
C       -1.96779232       1.55205380       0.32398997
C       -2.77568278       2.35524344       1.13202474
C       -2.50656914       2.49054658       2.50272700
C       -1.40263177       1.81579833       3.04614661
C       -0.59429383       1.01142627       2.23890346
C       -3.38255355       3.36705074       3.37572924
N       -2.92804628       4.74999028       3.40113901
C       -2.02083154       5.10687686       4.40207676
O       -1.61110834       4.34514363       5.27519575
C       -1.61442877       6.46626204       4.32910930
N       -0.76992083       7.21404803       5.10927469
C       -0.05168094       6.74906145       6.27975047
C       -0.90524470       6.81710272       7.52604613
O       -1.78306943       7.66620519       7.68343718
C       -0.59401323       5.82087065       8.60999068
C       -0.77194114       8.48713274       4.58686594
Br       0.18543771       9.96016009       5.24150862
N       -1.55771579       8.57553938       3.53109443
C       -2.08729742       7.33201921       3.39197117
N       -3.01043228       6.94637716       2.45053540
C       -3.53148574       7.91954705       1.50683500
C       -3.46726752       5.62753147       2.43819920
O       -4.31616524       5.24726782       1.62673577
H       -2.19550237       1.45746631      -0.73450354
H       -3.62057452       2.87586885       0.68313282
H       -1.16642561       1.90927037       4.10494990
H        0.25332759       0.49107344       2.67726844
H       -3.40047043       2.95976187       4.39436774
H       -4.41896076       3.31283763       3.02119235
H        0.84760534       7.35350174       6.42313987
H        0.27049729       5.72109151       6.09289402
H       -0.77571672       4.80886534       8.24028935
H       -1.24171568       6.00222826       9.47303808
H        0.44760473       5.93044446       8.92169458
H       -4.25944542       7.47584604       0.82297827
H       -2.70353772       8.32934389       0.92031066
H       -4.02224376       8.72543147       2.06204394
C        0.88197119      -0.88197119       0.88197119
C        2.18935402      -1.16199515       0.49248693
C        2.99603814      -1.96546722       1.30144560
C        2.50331617      -2.49042338       2.50610317
C        1.18048266      -2.20591970       2.87817436
C        0.37292140      -1.40161415       2.07008800
C        3.38002171      -3.36615315       3.37915866
N        3.29077317      -4.77306844       3.01533397
C        2.32216470      -5.54179877       3.66582169
O        1.57005233      -5.11991103       4.54148436
C        2.29209270      -6.89221425       3.22549315
N        1.52458822      -7.96362717       3.60502815
C        0.49554770      -7.95857245       4.62637270
C        1.07448611      -8.16616207       6.00774537
O        2.08786938      -8.83627151       6.20857092
C        0.31517881      -7.55536486       7.15433089
C        1.94897770      -9.03873077       2.85823134
Br       1.28109031     -10.78830698       2.94683372
N        2.92493760      -8.70229035       2.03712164
C        3.14279002      -7.38412446       2.28437332
N        4.10748979      -6.59989820       1.69995685
C        5.03205909      -7.18240185       0.74340685
C        4.21241190      -5.25653310       2.06405318
O        5.08235713      -4.52467696       1.58313473
H        2.59117797      -0.76204664      -0.43475947
H        4.01605252      -2.17893563       0.98458803
H        0.77026686      -2.60657232       3.80380671
H       -0.64752544      -1.18630750       2.37623222
H        3.09311340      -3.23186184       4.42962479
H        4.41880133      -3.02058933       3.31360009
H       -0.23360143      -8.74546571       4.41717199
H       -0.03027404      -7.00148216       4.57228011
H        0.30707135      -6.46774813       7.05005192
H        0.80337220      -7.81510666       8.09850316
H       -0.70618107      -7.94369019       7.16702519
H        5.74622315      -6.44636643       0.36568016
H        4.46637789      -7.58784026      -0.10102588
H        5.58899801      -7.98792452       1.23279664
