161
Properties=species:S:1:pos:R:3 pbc="F F F"
C        0.00000000       0.00000000       0.00000000
C        0.88197119       0.88197119      -0.88197119
C        0.37828328       1.38787009      -2.07768272
C        1.18430142       2.19715802      -2.88149151
C        2.49646207       2.50949180      -2.49388885
C        2.99080142       1.98316297      -1.29061233
C        2.18508875       1.17416268      -0.48537213
C        3.37010385       3.38406200      -3.37116768
N        4.10844725       2.61108052      -4.35964781
C        5.37825209       2.15490931      -3.99662376
O        5.92172042       2.39004418      -2.91968312
C        6.00835740       1.38819283      -5.01324988
N        7.23657845       0.78105238      -5.07561272
C        8.24936147       0.79293088      -4.03820051
C        9.10690545       2.03656252      -4.10492558
O        9.35327400       2.61659582      -5.16284198
C        9.70400826       2.51254653      -2.80831978
C        7.32761766       0.19906206      -6.31926009
N        6.23430682       0.40098815      -7.02905462
C        5.43608889       1.15057928      -6.22461963
N        4.20069258       1.65387792      -6.55277434
C        3.65470336       1.42436376      -7.87880067
C        3.50014457       2.41619414      -5.61665948
O        2.39985343       2.90934945      -5.88096595
H       -0.63645416       1.16096366      -2.39395564
H        0.77939398       2.58477377      -3.81540843
H        4.00774641       2.20321507      -0.96968441
H        2.58183928       0.77965250       0.44647751
H        4.06762683       3.94783084      -2.73914236
H        2.74773917       4.13976380      -3.86548778
H        8.88492735      -0.09097724      -4.13508616
H        7.74376344       0.72883980      -3.07088499
H        8.90479712       2.79938476      -2.12068953
H       10.33876481       3.38425880      -2.99395842
H       10.31454714       1.71843927      -2.37154789
H        2.67153365       1.88578932      -8.00094676
H        3.55992291       0.34712035      -8.04614901
H        4.33468970       1.85291960      -8.62210986
C        8.44931921      -0.54106571      -6.83655742
C        9.38874425      -1.16092272      -7.26979393
Br      10.90771509      -2.16317908      -7.97030072
C       -0.88197119      -0.88197119      -0.88197119
C       -0.63260497      -0.96146674      -2.24976438
C       -1.43731419      -1.77102037      -3.05461640
C       -2.49296890      -2.50922035      -2.49765347
C       -2.73584545      -2.40961216      -1.11911911
C       -1.93096529      -1.60071811      -0.31294016
C       -3.36741806      -3.38295558      -3.37495988
N       -4.49757285      -2.65177846      -3.92982426
C       -5.68440352      -2.65292746      -3.19245419
O       -5.84567941      -3.25342653      -2.13234177
C       -6.71958311      -1.89168560      -3.79853140
N       -8.01729295      -1.64906263      -3.42688796
C       -8.67691099      -2.16168885      -2.24189301
C       -9.23337980      -3.54983062      -2.46518313
O       -9.63289500      -3.93558754      -3.56422927
C       -9.33275857      -4.43773190      -1.25438409
C       -8.57069572      -0.86339981      -4.41184428
N       -7.69939631      -0.59878785      -5.36616543
C       -6.56901807      -1.25220195      -4.99006778
N       -5.39472631      -1.31216927      -5.70044926
C       -5.29875677      -0.66306260      -6.99604842
C       -4.31674111      -2.03262339      -5.18363368
O       -3.25355598      -2.13407184      -5.80254100
H        0.18232218      -0.40077378      -2.70001355
H       -1.23337577      -1.82288579      -4.12331463
H       -3.55301737      -2.96548673      -0.66214178
H       -2.12930411      -1.53969598       0.75398580
H       -3.72589627      -4.23899522      -2.78970854
H       -2.75959668      -3.81344526      -4.17994881
H       -9.48793211      -1.48850279      -1.95260138
H       -7.94939788      -2.16835697      -1.42573338
H       -8.33253742      -4.63233302      -0.86000096
H       -9.79275322      -5.39039921      -1.53382960
H       -9.95360949      -3.95570053      -0.49522429
H       -4.31278379      -0.79751220      -7.44797373
H       -5.48619673       0.40825231      -6.87524785
H       -6.04992876      -1.09393854      -7.66585187
C       -9.92277018      -0.36959218      -4.45244856
C      -11.05513253       0.04397171      -4.48645463
Br     -12.88606668       0.71266954      -4.54143959
C       -0.88197119       0.88197119       0.88197119
C       -1.90631990       1.63019859       0.30731760
C       -2.71443819       2.43339235       1.11512042
C       -2.50713213       2.49076413       2.50194645
C       -1.46421078       1.73767301       3.06269293
C       -0.65574057       0.93324035       2.25564264
C       -3.38294521       3.36740710       3.37498122
N       -2.86581123       4.72355264       3.48981171
C       -1.99326097       4.98791532       4.54860886
O       -1.66327296       4.16676557       5.40140918
C       -1.52037870       6.32755035       4.56187105
N       -0.68115835       6.99536152       5.41672368
C       -0.04408719       6.44110760       6.59529806
C       -0.95388372       6.49253056       7.80197927
O       -1.79756027       7.37552586       7.95962568
C       -0.74355705       5.43237975       8.84893777
C       -0.59765955       8.29012219       4.95815808
N       -1.32544190       8.46661124       3.87229645
C       -1.90532724       7.25859996       3.64736060
N       -2.79804259       6.96353912       2.64576314
C       -3.22569756       8.00443463       1.72773560
C       -3.31513392       5.67083968       2.54702459
O       -4.13993565       5.37138446       1.67884872
H       -2.08578962       1.59674903      -0.76407351
H       -3.51080856       3.01551616       0.65325147
H       -1.27633229       1.76957655       4.13473705
H        0.14388463       0.35174826       2.70715065
H       -3.47013353       2.91411773       4.37034877
H       -4.40202612       3.38103135       2.96993328
H        0.87442886       6.99310474       6.81036040
H        0.23828480       5.40842054       6.37335249
H       -0.95413978       4.44903228       8.42169934
H       -1.42376594       5.60470771       9.68850837
H        0.28543230       5.47574221       9.21422440
H       -3.93910759       7.62973889       0.98942325
H       -2.35152950       8.40002592       1.20163685
H       -3.70483516       8.80656219       2.29832181
C        0.16432142       9.35905422       5.55007811
C        0.80248048      10.25428480       6.04581113
Br       1.83432970      11.70179692       6.84736951
C        0.88197119      -0.88197119       0.88197119
C        2.18381829      -1.17580888       0.48420893
C        2.99054700      -1.97926273       1.29314122
C        2.50344337      -2.49040166       2.50599769
C        1.18604070      -2.19209942       2.88643661
C        0.37844877      -1.38779791       2.07837687
C        3.38012701      -3.36616106       3.37904545
N        3.27651613      -4.77520161       3.02745785
C        2.30705693      -5.53070123       3.69202700
O        1.56556328      -5.09560558       4.57027885
C        2.26245157      -6.88434874       3.26299980
N        1.48941831      -7.94634820       3.65747704
C        0.46882796      -7.92461625       4.68704865
C        1.05732788      -8.12573019       6.06533548
O        2.06685588      -8.80244459       6.26341134
C        0.31238266      -7.49948415       7.21300776
C        1.89897169      -9.03089614       2.91607198
N        2.87088654      -8.70910002       2.08436303
C        3.10142184      -7.39079759       2.31906836
N        4.06763771      -6.61923593       1.72047121
C        4.97961519      -7.21700052       0.76125207
C        4.18640855      -5.27386716       2.07272248
O        5.05829716      -4.55305990       1.57881177
H        2.58128284      -0.78667977      -0.44949747
H        4.00617694      -2.20361407       0.96978518
H        0.78016596      -2.58187713       3.81860280
H       -0.63768620      -1.16169172       2.39100877
H        3.10290451      -3.22102603       4.43066950
H        4.42110179      -3.02963470       3.30225425
H       -0.26835579      -8.70719727       4.49019480
H       -0.04964769      -6.96373317       4.62940275
H        0.31223453      -6.41271789       7.09991899
H        0.80615056      -7.75554733       8.15528414
H       -0.71195168      -7.87933968       7.23714631
H        5.69660955      -6.48990609       0.37175409
H        4.40379076      -7.62463276      -0.07523125
H        5.53398875      -8.02305394       1.25267647
C        1.37568825     -10.36987176       2.99925089
C        0.93743838     -11.49126385       3.06891323
Br       0.22882539     -13.30446000       3.18155134
