137
Properties=species:S:1:pos:R:3 pbc="F F F"
C        0.00000000       0.00000000       0.00000000
O        4.37424634       4.01495497      -8.82858782
C        4.94265379       4.15022388      -7.74853201
C        5.10193222       5.52886013      -7.11907540
S        3.65281994       5.94745619      -6.10293847
C        3.81896966       4.78704996      -4.82477884
N        4.96916388       4.27086275      -4.43623811
N        4.67254340       3.31276064      -3.49195529
C        3.36117245       3.32490325      -3.34818706
O        2.75422851       4.24840045      -4.15877239
C        2.50111902       2.50296775      -2.50629182
C        3.06251082       1.48013967      -1.72466179
C        2.25733971       0.67101827      -0.91617728
C        0.88133058       0.88133058      -0.88133058
C        0.30390318       1.89116064      -1.64684379
C        1.11136784       2.69768576      -2.45600059
N        5.46565164       3.13169055      -6.96762159
C        5.43684029       1.74773460      -7.22574104
C        5.05298670       1.18684003      -8.44475110
C        5.03661418      -0.20273970      -8.60982147
C        5.40373968      -1.03294223      -7.55370295
Br       5.36556148      -2.90958358      -7.77333808
C        5.79695656      -0.48752265      -6.33531920
C        5.81803419       0.90030115      -6.17577911
H        5.18841323       6.26244074      -7.92756396
H        6.02551969       5.58913971      -6.53432779
H        4.13691655       1.30182761      -1.74255378
H        2.71325267      -0.11701341      -0.32202097
H       -0.76995882       2.05981878      -1.62468843
H        0.63843897       3.47932017      -3.04832699
H        5.78065579       3.38980966      -6.03336929
H        4.76625525       1.80351228      -9.29102838
H        4.73371945      -0.62089937      -9.56613463
H        6.08337111      -1.12757570      -5.50561924
H        6.11991307       1.30884362      -5.21351219
O       -8.60443151      -3.29015262      -5.32320499
C       -7.73194922      -4.09660395      -5.01285652
C       -6.88776963      -4.78094023      -6.08115789
S       -5.43101419      -3.77481022      -6.49739019
C       -4.54319900      -3.87657041      -5.01102905
N       -4.62623750      -4.88521977      -4.16480747
N       -3.87166009      -4.54052412      -3.06507512
C       -3.35705510      -3.35357777      -3.32362990
O       -3.73423755      -2.87568044      -4.55148336
C       -2.50553269      -2.50051314      -2.50433275
C       -2.16407155      -2.90095726      -1.20228347
C       -1.35668219      -2.09537703      -0.39247604
C       -0.88133058      -0.88133058      -0.88133058
C       -1.20601177      -0.46574421      -2.17015164
C       -2.01526020      -1.27256558      -2.97722841
N       -7.37914772      -4.46234732      -3.72346873
C       -7.91604354      -3.97980595      -2.51446645
C       -9.06490436      -3.19208602      -2.42758746
C       -9.51990877      -2.73999887      -1.18378831
C       -8.82425340      -3.07534259      -0.02490440
Br      -9.43104095      -2.45054637       1.65227134
C       -7.68208139      -3.86719043      -0.09548128
C       -7.23397336      -4.32193890      -1.33820218
H       -7.50465737      -4.89498560      -6.97877497
H       -6.59574967      -5.78774540      -5.76549212
H       -2.52965305      -3.84688830      -0.80475658
H       -1.10784542      -2.42392517       0.61351037
H       -0.83873898       0.48152398      -2.55733339
H       -2.25889571      -0.92671901      -3.98047141
H       -6.54246594      -5.03595761      -3.62541120
H       -9.63517953      -2.91631417      -3.30930222
H      -10.41586961      -2.12669188      -1.13639322
H       -7.13231049      -4.13227917       0.80317502
H       -6.33428836      -4.93283803      -1.37514249
O       -6.97015572       7.58428325       2.66335015
C       -6.18508924       7.15299193       3.50332852
C       -6.68659011       6.35949687       4.70378077
S       -6.80990729       4.58964289       4.30366442
C       -5.13310790       4.19486926       4.10282131
N       -4.14425861       4.83164228       4.70036385
N       -2.97499166       4.30564755       4.19662011
C       -3.32771350       3.36422503       3.34232423
O       -4.68807419       3.23181669       3.24151048
C       -2.50570583       2.50409321       2.50057955
C       -1.11007119       2.66053018       2.49671090
C       -0.30004284       1.85437391       1.69011852
C       -0.88133058       0.88133058       0.88133058
C       -2.26298530       0.70779144       0.87113088
C       -3.07087893       1.51674262       1.67743264
N       -4.80566291       7.28397585       3.47532502
C       -4.01989070       7.90493149       2.48549375
C       -4.53702496       8.69206850       1.45548438
C       -3.68377919       9.25827969       0.50163709
C       -2.31107289       9.03611964       0.57730787
Br      -1.16199532       9.78824530      -0.72092464
C       -1.78048772       8.26054453       1.60372086
C       -2.63448283       7.70175975       2.55787186
H       -7.68322670       6.73171799       4.96347324
H       -6.04774661       6.52367370       5.57756688
H       -0.64046192       3.41851923       3.12231679
H        0.77785577       1.99542381       1.70069218
H       -2.72299237      -0.04959771       0.24115373
H       -4.14882913       1.36568178       1.65157522
H       -4.28324026       6.75112970       4.16946478
H       -5.60080560       8.89100100       1.36898930
H       -4.10522526       9.86739252      -0.29366307
H       -0.71117892       8.08068727       1.66954846
H       -2.20289898       7.09106560       3.34830431
O        2.66064612      -6.99255286       7.56459014
C        3.49898146      -6.20171097       7.14071725
C        4.70530987      -6.69411484       6.35044303
S        4.31381607      -6.81116200       4.57823653
C        4.10711059      -5.13350710       4.19018077
N        4.69722552      -4.14487006       4.83416917
N        4.19054182      -2.97551527       4.31120224
C        3.34215784      -3.32781388       3.36429104
O        3.24816478      -4.68799983       3.22523675
C        2.50058699      -2.50572178       2.50406982
C        2.48962934      -1.11084860       2.66683433
C        1.68301928      -0.30082231       1.86069368
C        0.88133058      -0.88133058       0.88133058
C        0.87823409      -2.26220997       0.70146356
C        1.68453107      -3.07011567       1.51040744
N        3.46407931      -4.82303924       7.27784523
C        2.46785335      -4.04462343       7.89783916
C        1.43664794      -4.57002915       8.67790074
C        0.47634591      -3.72372734       9.24362271
C        0.54675297      -2.34969018       9.02805725
Br      -0.76012464      -1.20997881       9.77946181
C        1.57424800      -1.81090302       8.25960208
C        2.53482339      -2.65798671       7.70130434
H        4.96785801      -7.69125032       6.71930960
H        5.57541175      -6.05206016       6.52151528
H        3.10962835      -0.64186703       3.42980255
H        1.68802554       0.77645745       2.00669212
H        0.25381730      -2.72161216      -0.06088107
H        1.66428713      -4.14747081       1.35432820
H        4.15824120      -4.29503506       6.75055849
H        1.35411080      -5.63509017       8.87159493
H       -0.31978262      -4.15156572       9.84717162
H        1.63600607      -0.74049514       8.08491344
H        3.32604518      -2.22002568       7.09619803
