158
Properties=species:S:1:pos:R:3 pbc="F F F"
O        5.28415036       4.92485899      -9.73849184
C        5.85255782       5.06012791      -8.65843604
C        6.01183625       6.43876415      -8.02897942
S        4.56272397       6.85736021      -7.01284249
C        4.72887369       5.69695398      -5.73468287
N        5.87906791       5.18076677      -5.34614214
N        5.58244742       4.22266466      -4.40185932
C        4.27107647       4.23480728      -4.25809109
O        3.66413254       5.15830448      -5.06867641
C        3.41102304       3.41287177      -3.41619584
C        3.97241484       2.39004369      -2.63456582
C        3.16724374       1.58092230      -1.82608130
C        1.79123461       1.79123461      -1.79123461
C        1.21380721       2.80106466      -2.55674782
C        2.02127186       3.60758978      -3.36590462
N        6.37555566       4.04159458      -7.87752561
C        6.34674432       2.65763863      -8.13564507
C        5.96289072       2.09674406      -9.35465513
C        5.94651820       0.70716433      -9.51972550
C        6.31364370      -0.12303821      -8.46360697
Br       6.27546550      -1.99967955      -8.68324211
C        6.70686059       0.42238137      -7.24522322
C        6.72793821       1.81020517      -7.08568313
H        6.09831726       7.17234476      -8.83746799
H        6.93542372       6.49904373      -7.44423182
H        5.04682057       2.21173164      -2.65245780
H        3.62315669       0.79289061      -1.23192499
H        0.13994520       2.96972281      -2.53459245
H        1.54834300       4.38922419      -3.95823102
H        6.69055982       4.29971368      -6.94327332
H        5.67615928       2.71341630     -10.20093240
H        5.64362347       0.28900465     -10.47603866
H        6.99327514      -0.21767168      -6.41552326
H        7.02981710       2.21874765      -6.12341621
O       -9.50492544      -6.25748347      -4.18509228
C       -8.39532218      -6.56133684      -4.61446274
C       -8.04401529      -6.35297630      -6.08258824
S       -7.39499347      -4.67697913      -6.36095406
C       -5.89690861      -4.77136706      -5.49223486
N       -5.22220872      -5.88787495      -5.29589316
N       -4.16565634      -5.57033230      -4.47098277
C       -4.25112642      -4.27454454      -4.23830388
O       -5.32437140      -3.69942426      -4.86731777
C       -3.41638887      -3.41177048      -3.41193132
C       -2.35840527      -3.96569120      -2.67292789
C       -1.54923038      -3.16050873      -1.86450823
C       -1.79123461      -1.79123461      -1.79123461
C       -2.83372666      -1.22074837      -2.51714466
C       -3.64263020      -2.02871848      -3.32341758
N       -7.34539986      -7.07766405      -3.87161195
C       -7.31556866      -7.33662461      -2.48783475
C       -8.44074777      -7.31108707      -1.66245506
C       -8.31795478      -7.56392581      -0.29152743
C       -7.06763127      -7.84176928       0.25518809
Br      -6.90133724      -8.16706565       2.10937483
C       -5.93830325      -7.87907707      -0.55708486
C       -6.06527313      -7.63220424      -1.92634914
H       -8.95915707      -6.47804179      -6.67093115
H       -7.33655358      -7.11340717      -6.42873851
H       -2.15757468      -5.03531141      -2.71812392
H       -0.73791756      -3.61147409      -1.29858064
H       -3.02837715      -0.15241014      -2.46347318
H       -4.45374337      -1.56205429      -3.88000054
H       -6.44435299      -7.14632797      -4.34286586
H       -9.43143193      -7.10383879      -2.05523726
H       -9.20543443      -7.53849911       0.33526675
H       -4.95886432      -8.09336701      -0.13889539
H       -5.17025476      -7.65705682      -2.54466938
O       -9.17258455       6.94132170       3.83359494
C       -8.10289910       7.03963856       4.42858410
C       -7.98004267       6.61313748       5.88639967
S       -7.57792435       4.84383870       6.01116361
C       -5.97583435       4.83767369       5.34700249
N       -5.15318796       5.86830855       5.38448031
N       -4.04022046       5.51127020       4.65548074
C       -4.24661912       4.27568464       4.24167108
O       -5.45547012       3.78006620       4.65557710
C       -3.41633545       3.41237433       3.41138088
C       -2.21017678       3.90224310       2.88460447
C       -1.40063019       3.09690612       2.07671103
C       -1.79123461       1.79123461       1.79123461
C       -2.98235258       1.28453333       2.30473378
C       -3.79101203       2.09283065       3.11092358
N       -6.90861090       7.49406890       3.89199605
C       -6.66190286       7.90893374       2.56919141
C       -7.66048384       8.13348060       1.62032547
C       -7.32478522       8.52826026       0.32036255
C       -5.98809819       8.69779023      -0.03167596
Br      -5.53582898       9.21530440      -1.79210532
C       -4.98227179       8.48581726       0.90637613
C       -5.32114735       8.09766718       2.20501198
H       -8.94482211       6.78981642       6.37349148
H       -7.24057580       7.22471870       6.41340476
H       -1.89183331       4.92201818       3.09715852
H       -0.47268739       3.49823534       1.67704956
H       -3.29332123       0.26619113       2.08474810
H       -4.71936017       1.67713942       3.49929861
H       -6.07763669       7.38418351       4.47172662
H       -8.71261777       8.01663646       1.86125375
H       -8.11630479       8.69729945      -0.40493746
H       -3.93693799       8.61411904       0.64006969
H       -4.52113680       7.92805152       2.92279264
O        6.11884109      -4.27249659       9.55616351
C        6.46247831      -4.66435485       8.44428860
C        6.30219617      -6.12754947       8.04983418
S        4.65145690      -6.43177242       7.34969734
C        4.76142114      -5.52154497       5.87754442
N        5.88937104      -5.27867183       5.23793396
N        5.57745685      -4.43454025       4.19497431
C        4.27418901      -4.23770857       4.25207726
O        3.68843273      -4.90954593       5.29313477
C        3.41165560      -3.41205349       3.41638156
C        3.97292077      -2.63125272       2.39285086
C        3.16775557      -1.82272956       1.58376221
C        1.79123461      -1.79123461       1.79123461
C        1.21346816      -2.55896806       2.79918346
C        2.02136925      -3.36526687       3.60813014
N        6.98586585      -3.88089252       7.42791748
C        7.20877837      -2.49059130       7.44065834
C        7.13237918      -1.69622772       8.58568301
C        7.35191227      -0.31646370       8.50503207
C        7.64734184       0.27015204       7.27702267
Br       7.92760909       2.13586578       7.16728474
C        7.73526321      -0.51070029       6.12850168
C        7.52154017      -1.88875881       6.21352753
H        6.41914848      -6.73649589       8.95248564
H        7.08952198      -6.43511509       7.35406220
H        5.04818709      -2.64350912       2.21931380
H        3.62435565      -1.22407359       0.79954305
H        0.13941793      -2.53804531       2.96679723
H        1.54883880      -3.95498426       4.39197515
H        7.09020365      -4.32619464       6.51714852
H        6.91011804      -2.12031943       9.56007052
H        7.28701360       0.28574694       9.40740012
H        7.96359837      -0.06133479       5.16619356
H        7.58583518      -2.48231649       5.30382930
C       -0.00445707       0.01189536      -1.78238275
H       -0.66409135       0.67374010      -2.43557963
H        0.65740317      -0.63156657      -2.45157240
C       -0.90989263      -0.90692880      -0.91072765
C        0.90977584       0.90977584      -0.90977584
C       -0.00465871       1.77757030       0.00794375
H       -0.66225468       2.44313916      -0.64384735
H        0.64322798       2.43503045       0.67728295
C       -1.78241447       0.00034974      -0.00472694
H       -2.45427497      -0.65498947       0.64260836
H       -2.43311707       0.67328779      -0.65473579
C       -0.91132561       0.90220522       0.91563759
C       -0.01476271      -0.02253852       1.78660255
H       -0.67934791      -0.69751639       2.42135241
H        0.63392994       0.61504881       2.47327442
C        0.01484550      -1.77751727      -0.01636693
H        0.67870853      -2.42144646      -0.68295456
H       -0.62264859      -2.45592969       0.64226336
C        1.78714474       0.01002794       0.00389507
H        2.44202412       0.67113390       0.66197326
H        2.45385902      -0.65136977      -0.64189061
C        0.91606151      -0.90478549       0.90901405
