166
Properties=species:S:1:pos:R:3 pbc="F F F"
O        5.28415036       4.92485899      -9.73849184
C        5.85255782       5.06012791      -8.65843604
C        6.01183625       6.43876415      -8.02897942
S        4.56272397       6.85736021      -7.01284249
C        4.72887369       5.69695398      -5.73468287
N        5.87906791       5.18076677      -5.34614214
N        5.58244742       4.22266466      -4.40185932
C        4.27107647       4.23480728      -4.25809109
O        3.66413254       5.15830448      -5.06867641
C        3.41102304       3.41287177      -3.41619584
C        3.97241484       2.39004369      -2.63456582
C        3.16724374       1.58092230      -1.82608130
C        1.79123461       1.79123461      -1.79123461
C        1.21380721       2.80106466      -2.55674782
C        2.02127186       3.60758978      -3.36590462
N        6.37555566       4.04159458      -7.87752561
C        6.34674432       2.65763863      -8.13564507
C        5.96289072       2.09674406      -9.35465513
C        5.94651820       0.70716433      -9.51972550
C        6.31364370      -0.12303821      -8.46360697
C        6.70686059       0.42238137      -7.24522322
C        6.72793821       1.81020517      -7.08568313
H        6.09831726       7.17234476      -8.83746799
H        6.93542372       6.49904373      -7.44423182
H        5.04682057       2.21173164      -2.65245780
H        3.62315669       0.79289061      -1.23192499
H        0.13994520       2.96972281      -2.53459245
H        1.54834300       4.38922419      -3.95823102
H        6.69055982       4.29971368      -6.94327332
H        5.67615928       2.71341630     -10.20093240
H        5.64362347       0.28900465     -10.47603866
H        6.99327514      -0.21767168      -6.41552326
H        7.02981710       2.21874765      -6.12341621
C        6.28455303      -1.55298431      -8.63096255
C        6.26018958      -2.75056416      -8.77112285
Br       6.22079595      -4.68694950      -8.99775021
O       -9.69002673      -5.63380914      -4.62366532
C       -8.58657453      -6.11132164      -4.87322559
C       -8.05008220      -6.13007165      -6.29942598
S       -7.16814897      -4.58552905      -6.67924865
C       -5.80034395      -4.73646024      -5.62370634
N       -5.29781785      -5.88765689      -5.22050208
N       -4.30847168      -5.58874378      -4.30975595
C       -4.25550782      -4.27259544      -4.23587158
O       -5.17075823      -3.66504637      -5.05530882
C       -3.41630500      -3.41127497      -3.41251069
C       -2.52571152      -3.98236988      -2.48894294
C       -1.71695513      -3.17722556      -1.68006665
C       -1.79123461      -1.79123461      -1.79123461
C       -2.66593346      -1.20389154      -2.70179469
C       -3.47501321      -2.01154365      -3.50820940
N       -7.69962221      -6.64397464      -3.95107900
C       -7.85736796      -6.72829038      -2.55436967
C       -9.05545170      -6.47350721      -1.88533100
C       -9.11935609      -6.56378854      -0.49026340
C       -7.98292219      -6.90844338       0.23715310
C       -6.78369489      -7.17364145      -0.41712884
C       -6.72484493      -7.08856495      -1.81041663
H       -8.90221299      -6.22525164      -6.98066539
H       -7.40983135      -7.00225555      -6.46661237
H       -2.45741360      -5.06484824      -2.38874817
H       -1.03721728      -3.64108491      -0.96967010
H       -2.72924745      -0.12229959      -2.79271343
H       -4.15362064      -1.53105486      -4.21112271
H       -6.76745195      -6.87163767      -4.29445720
H       -9.96203302      -6.20804873      -2.42042623
H      -10.06096856      -6.36067126       0.01297304
H       -5.89192262      -7.44158533       0.14238123
H       -5.77667534      -7.29089094      -2.30441468
C       -8.04701827      -6.98898262       1.67346961
C       -8.10069873      -7.05643423       2.87638469
Br      -8.18749550      -7.16549779       4.82139664
O       -9.63348378       5.87157752       4.44243990
C       -8.52262854       6.28452405       4.76396917
C       -8.05398259       6.21334374       6.21225349
S       -7.26176284       4.61317545       6.55798839
C       -5.84007981       4.74672943       5.57370129
N       -5.26748800       5.88988686       5.24860196
N       -4.25064780       5.58593847       4.37038513
C       -4.25380530       4.27344658       4.23672296
O       -5.23336818       3.67349715       4.98424810
C       -3.41635273       3.41145731       3.41228061
C       -2.45811059       3.98090657       2.55800720
C       -1.64918520       3.17575991       1.74930222
C       -1.79123461       1.79123461       1.79123461
C       -2.73373482       1.20540744       2.63247743
C       -3.54275292       2.01318310       3.43883024
N       -7.56982512       6.81572207       3.90912867
C       -7.65727397       6.97047666       2.51227738
C       -8.83262153       6.80322894       1.77843944
C       -8.82623843       6.95941790       0.38775170
C       -7.64221084       7.28240176      -0.27040014
C       -6.46455242       7.46065507       0.44925769
C       -6.47565950       7.30997961       1.83818741
H       -8.93224407       6.31787450       6.85801144
H       -7.38358943       7.04577572       6.44933411
H       -2.33627224       5.06235771       2.51238007
H       -0.91629016       3.63855147       1.09313067
H       -2.85012056       0.12502416       2.66911575
H       -4.27491744       1.53408259       4.08679818
H       -6.64562376       6.98322516       4.30469790
H       -9.77460100       6.55708138       2.25882560
H       -9.75118128       6.82408269      -0.16659719
H       -5.53608160       7.71108789      -0.05604278
H       -5.54377186       7.44463238       2.38357672
C       -7.63450598       7.43074359      -1.70271831
C       -7.62805316       7.55497988      -2.90228477
Br      -7.61761950       7.75585945      -4.84188229
O        6.63057932      -3.97705102       9.33987085
C        6.82419554      -4.50074674       8.24617948
C        6.49293712      -5.97032332       8.01631939
S        4.75964404      -6.17021107       7.50307156
C        4.80401879      -5.41313299       5.94335876
N        5.87968987      -5.34348075       5.18280621
N        5.54299630      -4.57067276       4.09330234
C        4.27529192      -4.24005295       4.24862996
O        3.73802189      -4.75249996       5.40059158
C        3.41209232      -3.41162034       3.41637800
C        3.93675258      -2.78716651       2.27310526
C        3.13149998      -1.97903074       1.46371662
C        1.79123461      -1.79123461       1.79123461
C        1.24985298      -2.40250604       2.91926066
C        2.05800431      -3.20872452       3.72803743
N        7.31228409      -3.86921507       7.11317670
C        7.66077911      -2.51282061       6.96642830
C        7.77184573      -1.61404085       8.02840334
C        8.10668990      -0.27623637       7.79048175
C        8.32984629       0.16383068       6.48819686
C        8.23107419      -0.72303250       5.42035850
C        7.90257949      -2.05933087       5.66191615
H        6.64379303      -6.50334826       8.96098872
H        7.17546576      -6.41707919       7.28615431
H        4.98367221      -2.92267301       2.00466480
H        3.55984757      -1.50282809       0.58529664
H        0.20433322      -2.25907273       3.18085451
H        1.61464747      -3.67451065       4.60664008
H        7.28406273      -4.40364291       6.24584118
H        7.61057935      -1.92344643       9.05648219
H        8.18740801       0.40895011       8.63020889
H        8.40186443      -0.38809505       4.40116724
H        7.82131621      -2.73654959       4.81411516
C        8.66227486       1.54343512       6.24369153
C        8.94068379       2.69885383       6.03891831
Br       9.39084748       4.56706816       5.70781734
C       -0.00445707       0.01189536      -1.78238275
H       -0.66409135       0.67374010      -2.43557963
H        0.65740317      -0.63156657      -2.45157240
C       -0.90989263      -0.90692880      -0.91072765
C        0.90977584       0.90977584      -0.90977584
C       -0.00465871       1.77757030       0.00794375
H       -0.66225468       2.44313916      -0.64384735
H        0.64322798       2.43503045       0.67728295
C       -1.78241447       0.00034974      -0.00472694
H       -2.45427497      -0.65498947       0.64260836
H       -2.43311707       0.67328779      -0.65473579
C       -0.91132561       0.90220522       0.91563759
C       -0.01476271      -0.02253852       1.78660255
H       -0.67934791      -0.69751639       2.42135241
H        0.63392994       0.61504881       2.47327442
C        0.01484550      -1.77751727      -0.01636693
H        0.67870853      -2.42144646      -0.68295456
H       -0.62264859      -2.45592969       0.64226336
C        1.78714474       0.01002794       0.00389507
H        2.44202412       0.67113390       0.66197326
H        2.45385902      -0.65136977      -0.64189061
C        0.91606151      -0.90478549       0.90901405
