145
Properties=species:S:1:pos:R:3 pbc="F F F"
C        0.00000000       0.00000000       0.00000000
O        4.37424634       4.01495497      -8.82858782
C        4.94265379       4.15022388      -7.74853201
C        5.10193222       5.52886013      -7.11907540
S        3.65281994       5.94745619      -6.10293847
C        3.81896966       4.78704996      -4.82477884
N        4.96916388       4.27086275      -4.43623811
N        4.67254340       3.31276064      -3.49195529
C        3.36117245       3.32490325      -3.34818706
O        2.75422851       4.24840045      -4.15877239
C        2.50111902       2.50296775      -2.50629182
C        3.06251082       1.48013967      -1.72466179
C        2.25733971       0.67101827      -0.91617728
C        0.88133058       0.88133058      -0.88133058
C        0.30390318       1.89116064      -1.64684379
C        1.11136784       2.69768576      -2.45600059
N        5.46565164       3.13169055      -6.96762159
C        5.43684029       1.74773460      -7.22574104
C        5.05298670       1.18684003      -8.44475110
C        5.03661418      -0.20273970      -8.60982147
C        5.40373968      -1.03294223      -7.55370295
C        5.79695656      -0.48752265      -6.33531920
C        5.81803419       0.90030115      -6.17577911
H        5.18841323       6.26244074      -7.92756396
H        6.02551969       5.58913971      -6.53432779
H        4.13691655       1.30182761      -1.74255378
H        2.71325267      -0.11701341      -0.32202097
H       -0.76995882       2.05981878      -1.62468843
H        0.63843897       3.47932017      -3.04832699
H        5.78065579       3.38980966      -6.03336929
H        4.76625525       1.80351228      -9.29102838
H        4.73371945      -0.62089937      -9.56613463
H        6.08337111      -1.12757570      -5.50561924
H        6.11991307       1.30884362      -5.21351219
C        5.37464900      -2.46288833      -7.72105853
C        5.35028556      -3.66046819      -7.86121883
Br       5.31089193      -5.59685353      -8.08784618
O       -6.53924017      -2.74886028      -7.92968867
C       -6.47484827      -3.44582924      -6.92073218
C       -5.90692559      -4.85849605      -6.98444611
S       -4.10220533      -4.84097610      -6.76003316
C       -3.99568422      -4.32852969      -5.10658455
N       -4.93068025      -4.54430770      -4.20127679
N       -4.53160865      -3.88772774      -3.05792295
C       -3.36596307      -3.33473405      -3.33356564
O       -2.95865855      -3.58469272      -4.61805008
C       -2.50295906      -2.50112461      -2.50629491
C       -2.91513685      -2.13851680      -1.21365862
C       -2.10961006      -1.33103114      -0.40389407
C       -0.88133058      -0.88133058      -0.88133058
C       -0.45217596      -1.23046474      -2.15926691
C       -1.26070198      -2.03664102      -2.96771119
N       -6.85400398      -3.06885577      -5.64210403
C       -7.36093607      -1.82250250      -5.22687736
C       -7.77034721      -0.81386951      -6.10036111
C       -8.24635190       0.40375194      -5.60109599
C       -8.31209309       0.61352418      -4.22593148
C       -7.91539801      -0.38631989      -3.34303521
C       -7.44640191      -1.60300298      -3.84470955
H       -6.13448727      -5.27080241      -7.97312825
H       -6.39043868      -5.50956366      -6.24898485
H       -3.87408275      -2.48064268      -0.82657252
H       -2.45043071      -1.06007660       0.59224709
H        0.50541340      -0.88179298      -2.53816881
H       -0.90672287      -2.29493316      -3.96443010
H       -6.60872072      -3.70800047      -4.88711355
H       -7.73834402      -0.94481988      -7.17763201
H       -8.55955889       1.17757332      -6.29696914
H       -7.96175191      -0.23075733      -2.26890541
H       -7.13245653      -2.37009146      -3.13972090
C       -8.79053745       1.87142658      -3.71370833
C       -9.19123460       2.92491983      -3.28472144
Br      -9.83912800       4.62832933      -2.59108592
O       -4.70384426       8.78405558       3.72988929
C       -4.59587055       7.79538618       4.45015296
C       -5.82863488       7.02089001       4.90034286
S       -6.27486489       5.74867185       3.67967786
C       -4.92091650       4.67589391       3.83398805
N       -4.20376544       4.53965172       4.93284759
N       -3.16025158       3.69628227       4.62072548
C       -3.32366634       3.35325454       3.35734188
O       -4.43239427       3.93203405       2.79697304
C       -2.50372091       2.50594027       2.50071740
C       -1.30817251       1.96169187       2.99744791
C       -0.49862585       1.15379853       2.19211088
C       -0.88133058       0.88133058       0.88133058
C       -2.06380575       1.40906193       0.36903993
C       -2.87060917       2.21830807       1.17613695
N       -3.40971842       7.24540039       4.90984497
C       -2.09767092       7.67689892       4.63574610
C       -1.78565541       8.88620288       4.01271954
C       -0.45221906       9.22922281       3.76225408
C        0.57097407       8.36095136       4.13452310
C        0.27525679       7.15574087       4.76426903
C       -1.05668342       6.81908907       5.01834195
H       -6.65929847       7.72883147       4.99028799
H       -5.67600159       6.58155147       5.89143414
H       -0.99412026       2.16717953       4.01999815
H        0.42434144       0.74594385       2.59665781
H       -2.36767945       1.20075958      -0.65389063
H       -3.78928298       2.62261391       0.75418925
H       -3.47789161       6.34449763       5.38144551
H       -2.55699115       9.58952384       3.71428092
H       -0.22908617      10.17475929       3.27510926
H        1.06691198       6.47169978       5.05662684
H       -1.26962147       5.86883902       5.50380840
C        1.94190995       8.70960474       3.86512441
C        3.09006874       9.00160194       3.63950300
Br       4.94654440       9.47373672       3.27469227
O        2.76226362      -6.49065752       7.96486797
C        3.62262247      -5.83403182       7.38475540
C        4.68921888      -6.52049885       6.54015002
S        4.10719069      -6.76193259       4.83409132
C        4.01953878      -5.11567316       4.29558653
N        4.76315058      -4.13744785       4.77566631
N        4.31687095      -2.97610771       4.18428067
C        3.34579231      -3.32588057       3.36258989
O        3.11088623      -4.67604895       3.37446617
C        2.50046631      -2.50534517       2.50456710
C        2.63715312      -1.10774659       2.52241256
C        1.83091172      -0.29770977       1.71591377
C        0.88133058      -0.88133058       0.88133058
C        0.73026850      -2.26522040       0.84641871
C        1.53668868      -3.07286235       1.65550316
N        3.73142818      -4.45240010       7.38113550
C        2.88205296      -3.52041924       8.00784374
C        1.89244387      -3.86087513       8.93125884
C        1.07938493      -2.87047572       9.49383531
C        1.25553505      -1.53737710       9.13158824
C        2.24392501      -1.18219936       8.21862873
C        3.05794968      -2.17270566       7.66345910
H        4.89394225      -7.50047959       6.98399610
H        5.62866191      -5.95874728       6.56157801
H        3.37398003      -0.63603297       3.17128494
H        1.95191403       0.78218235       1.74852854
H       -0.00997084      -2.72693284       0.19758639
H        1.39954760      -4.15219673       1.61434180
H        4.41369665      -4.05080759       6.73933051
H        1.73096865      -4.88881708       9.24101017
H        0.31342554      -3.15518559      10.21034358
H        2.38729244      -0.14503179       7.92909042
H        3.81983765      -1.87761040       6.94482084
C        0.41010254      -0.52075578       9.70196088
C       -0.29794719       0.33066458      10.17964797
Br      -1.44280372       1.70733929      10.95202759
