190
Properties=species:S:1:pos:R:3 pbc="F F F"
C        8.32783066       8.51440282      -4.70218096
C        8.63493900       8.05385729      -5.92498338
C        9.17168472       6.69288604      -6.29833059
N        9.27080239       5.75339499      -5.19602401
C        8.27098621       4.93105087      -4.74439705
S        6.68201220       4.87918398      -5.41996727
C        5.72029986       4.39167331      -3.96049735
C        4.24652552       4.24445632      -4.30085275
O        3.69699768       4.79167593      -5.25559178
C        3.41191041       3.39740370      -3.40258115
C        2.26528637       2.79123769      -3.93449493
C        1.45820501       1.98296646      -3.13075405
C        1.79146204       1.79146204      -1.79146204
C        2.92232028       2.40142768      -1.24871229
C        3.73577873       3.20540216      -2.05363322
N        8.70440660       4.20436405      -3.74563436
N       10.02355570       4.52393919      -3.55012373
C       10.37637122       5.46481727      -4.41448279
C       11.73219981       6.02336360      -4.50949221
C       11.99398510       7.36877328      -4.80194692
C       13.30660807       7.84933266      -4.87819657
C       14.37390575       6.99103943      -4.63321200
C       14.14038578       5.65886210      -4.30884866
C       12.82659536       5.18164120      -4.24693617
H        7.94385858       9.52259454      -4.57053681
H        8.44239356       7.92011572      -3.79953381
H        8.48152708       8.72604704      -6.76843268
H       10.15837177       6.78985836      -6.76104932
H        8.53024110       6.24852128      -7.06714711
H        5.82433139       5.15917217      -3.18714068
H        6.10426366       3.43483368      -3.59411056
H        2.00007543       2.94226526      -4.97997284
H        0.57656251       1.51231237      -3.55846750
H        3.17674208       2.25988039      -0.20085791
H        4.60245933       3.68057635      -1.60185378
H       11.19049404       8.08125347      -4.95180366
H       13.48028383       8.89606870      -5.11530528
H       14.96571872       4.98439720      -4.09657180
H       12.65786355       4.13783759      -3.98274887
C       15.72322106       7.48914052      -4.70280727
C       16.85327263       7.90630018      -4.76109330
Br      18.68047045       8.58081207      -4.85533690
C       -6.01920203      -5.86373530      -9.66147711
C       -6.43204126      -7.03334070      -9.14839771
C       -5.60197985      -8.09437789      -8.46654361
N       -4.20708100      -7.74376491      -8.26937548
C       -3.69258276      -7.04795698      -7.20589438
S       -4.64105145      -6.44684825      -5.89326375
C       -3.65957124      -4.99732426      -5.41557502
C       -4.28159957      -4.28320573      -4.22702929
O       -5.46776253      -4.36465610      -3.91184675
C       -3.39604162      -3.41056531      -3.40528833
C       -3.73348749      -3.19578999      -2.06174151
C       -2.92785879      -2.39131822      -1.25274851
C       -1.79146204      -1.79146204      -1.79146204
C       -1.45451913      -1.98721600      -3.13072512
C       -2.25596737      -2.79817970      -3.94066704
N       -2.39669464      -6.91927179      -7.33843858
N       -2.03755616      -7.56816818      -8.49189428
C       -3.12311285      -8.06385873      -9.06869970
C       -3.10495358      -8.85017101     -10.30993103
C       -4.10518887      -8.77108489     -11.28843155
C       -4.03718141      -9.54197951     -12.45497638
C       -2.94848976     -10.38175094     -12.66791648
C       -1.92619376     -10.45424928     -11.72765350
C       -2.00641994      -9.69095675     -10.55779604
H       -6.72677730      -5.18289431     -10.12731832
H       -4.98178395      -5.54069134      -9.63956780
H       -7.49430477      -7.26513984      -9.21656219
H       -5.64775322      -9.03050422      -9.03102200
H       -6.03715428      -8.32150902      -7.48724619
H       -3.61454783      -4.29896251      -6.25713391
H       -2.65191955      -5.33110942      -5.15017893
H       -4.62328640      -3.66014077      -1.63888636
H       -3.19685391      -2.24010437      -0.21038410
H       -0.57300265      -1.51089315      -3.55358458
H       -1.97880935      -2.92190673      -4.98417338
H       -4.94553638      -8.09386714     -11.18414765
H       -4.83179245      -9.46667328     -13.19319209
H       -1.06187637     -11.09209645     -11.89271490
H       -1.19393829      -9.75066322      -9.83384850
C       -2.87540912     -11.16700493     -13.87275480
C       -2.81420408     -11.82465514     -14.88180690
Br      -2.71524070     -12.88801992     -16.51335881
C       -6.84185385       9.48021390       5.22234669
C       -7.72076250       8.86444071       6.02857645
C       -8.71037286       7.78163992       5.67088857
N       -8.61719265       7.29765094       4.30537781
C       -7.78595957       6.30395923       3.85651532
S       -6.67413562       5.44529374       4.86173409
C       -5.38607907       5.03515607       3.65123538
C       -4.26859349       4.22989505       4.29334605
O       -4.01537847       4.23186524       5.49702168
C       -3.41217396       3.40173373       3.39798757
C       -2.78255208       2.27127074       3.93719617
C       -1.97711743       1.46223498       3.13257311
C       -1.79146204       1.79146204       1.79146204
C       -2.40193360       2.92197170       1.24855495
C       -3.21459920       3.72944199       2.05077293
N       -7.96887848       6.11066291       2.57486362
N       -8.96110018       6.96635974       2.17015871
C       -9.35601859       7.69534048       3.20431220
C      -10.43022581       8.69587965       3.13895016
C      -10.40862727       9.89953116       3.85654688
C      -11.45879044      10.81969814       3.75564873
C      -12.53180626      10.55632734       2.91002358
C      -12.56195198       9.38416923       2.16197533
C      -11.51552952       8.46255767       2.27708555
H       -6.17809014      10.24821612       5.61068367
H       -6.74710308       9.25059716       4.16434284
H       -7.73676960       9.16313746       7.07609974
H       -9.73230489       8.13103139       5.84594317
H       -8.57338792       6.92841216       6.34410941
H       -4.96188592       5.96026127       3.24849706
H       -5.83870159       4.44800299       2.84650333
H       -2.92261909       2.01361161       4.98608284
H       -1.50165710       0.58390397       3.56178131
H       -2.24887950       3.18432167       0.20427920
H       -3.66618099       4.61237771       1.60633076
H       -9.56905599      10.16540077       4.48909441
H      -11.41947524      11.74166125       4.33052132
H      -13.38560200       9.17730368       1.48378205
H      -11.54766215       7.55250771       1.67828014
C      -13.60672709      11.50821488       2.80022687
C      -14.50697329      12.30542070       2.70827213
Br     -15.96259525      13.59443508       2.55958910
C        6.75712451      -5.27614392       9.51114600
C        6.86565562      -6.57150987       9.17661417
C        5.75685178      -7.54616912       8.85988045
N        4.42635564      -6.96626794       8.82759781
C        3.83395172      -6.36576555       7.74671685
S        4.59219249      -6.18362324       6.20534772
C        3.78544584      -4.66752620       5.61949849
C        4.27066134      -4.29203311       4.22914014
O        5.34285162      -4.65416852       3.74724524
C        3.39548732      -3.40858243       3.40782551
C        3.49390467      -3.48553674       2.01157759
C        2.68742946      -2.68157435       1.20292171
C        1.79146204      -1.79146204       1.79146204
C        1.69578833      -1.69690810       3.17976382
C        2.49734993      -2.50617635       3.99128784
N        2.62760147      -5.96620318       8.06060036
N        2.40036893      -6.33576692       9.36148277
C        3.48237603      -6.93366687       9.83962838
C        3.57970857      -7.48855234      11.19679472
C        4.75133004      -7.44853730      11.96483796
C        4.78835178      -7.99091352      13.25487200
C        3.64050870      -8.55537937      13.80226911
C        2.45610614      -8.57848484      13.07350556
C        2.42901563      -8.04639014      11.77976696
H        7.64334159      -4.68035088       9.71329747
H        5.80214356      -4.76432644       9.59557308
H        7.86856234      -6.99242051       9.11502395
H        5.75922381      -8.36857343       9.58148220
H        5.94913509      -8.01032751       7.88644689
H        4.02020339      -3.84640000       6.30404086
H        2.70472606      -4.83635991       5.59212194
H        4.19611187      -4.17750346       1.54869821
H        2.76823358      -2.75759330       0.12151550
H        1.00353994      -0.99498325       3.63895719
H        2.41334802      -2.40179260       5.06974884
H        5.65381163      -6.97500238      11.59473717
H        5.71349108      -7.95342456      13.82474217
H        1.54874195      -8.99936523      13.49858054
H        1.49192424      -8.06297460      11.22355116
C        3.67777982      -9.10441809      15.13297093
C        3.70899439      -9.56423802      16.24743371
Br       3.75946570     -10.30772795      18.04942577
C       -0.00445707       0.01189536      -1.78238275
H       -0.66409135       0.67374010      -2.43557963
H        0.65740317      -0.63156657      -2.45157240
C       -0.90989263      -0.90692880      -0.91072765
C        0.90977584       0.90977584      -0.90977584
C       -0.00465871       1.77757030       0.00794375
H       -0.66225468       2.44313916      -0.64384735
H        0.64322798       2.43503045       0.67728295
C       -1.78241447       0.00034974      -0.00472694
H       -2.45427497      -0.65498947       0.64260836
H       -2.43311707       0.67328779      -0.65473579
C       -0.91132561       0.90220522       0.91563759
C       -0.01476271      -0.02253852       1.78660255
H       -0.67934791      -0.69751639       2.42135241
H        0.63392994       0.61504881       2.47327442
C        0.01484550      -1.77751727      -0.01636693
H        0.67870853      -2.42144646      -0.68295456
H       -0.62264859      -2.45592969       0.64226336
C        1.78714474       0.01002794       0.00389507
H        2.44202412       0.67113390       0.66197326
H        2.45385902      -0.65136977      -0.64189061
C        0.91606151      -0.90478549       0.90901405
