137
Properties=species:S:1:pos:R:3 pbc="F F F"
C        0.00000000       0.00000000       0.00000000
C        0.88158913       0.88158913      -0.88158913
C        1.78855528       1.75976452      -0.29458885
C        2.59376462       2.56668725      -1.10442647
C        2.50759028       2.49837626      -2.50457900
C        1.58735089       1.60547262      -3.07599152
C        0.77468295       0.80201096      -2.26824469
C        3.36859809       3.34650534      -3.31896159
N        4.11884763       4.37202777      -2.96937425
N        4.76620395       4.78952984      -4.11424021
C        4.38379586       3.97922917      -5.07843370
S        4.98295048       4.07367772      -6.70741896
C        4.98088065       2.32083224      -7.16235522
C        5.92953007       1.53128613      -6.27413858
O        5.49315993       0.86709694      -5.33750245
N        7.25869781       1.65262911      -6.64823783
C        8.38247519       1.06792115      -6.02356129
C        8.31278225       0.26987525      -4.87881522
C        9.47395577      -0.26643973      -4.31108114
C       10.71716070      -0.01391618      -4.88500885
C       10.79188536       0.77717074      -6.02698074
Br      12.47536564       1.12291838      -6.81679220
C        9.63649505       1.31871365      -6.59602093
O        3.46601454       3.05577208      -4.65476568
H        1.88072677       1.82471618       0.78658430
H        3.30188555       3.24775257      -0.63315446
H        1.49158558       1.52604248      -4.15702094
H        0.06710356       0.11870318      -2.73085394
H        5.29232956       2.22182460      -8.20759246
H        3.97319974       1.89964587      -7.08526622
H        7.45794436       2.25230715      -7.44072111
H        7.36860805       0.04859478      -4.39078267
H        9.40129383      -0.88012998      -3.41627138
H       11.61301315      -0.43401292      -4.43588703
H        9.72389350       1.93426449      -7.48695233
C       -0.88158913      -0.88158913      -0.88158913
C       -2.26076486      -0.69148148      -0.89066231
C       -3.06568500      -1.50107603      -1.69811732
C       -2.50192567      -2.49981789      -2.50880198
C       -1.10918907      -2.67409603      -2.48552993
C       -0.30154989      -1.87057588      -1.67281284
C       -3.36901341      -3.31931066      -3.34574094
N       -4.68113421      -3.44197668      -3.33713876
N       -4.99821052      -4.30924196      -4.36252151
C       -3.86221009      -4.64004034      -4.93920831
S       -3.75680015      -5.67683838      -6.33040862
C       -2.33875104      -4.94164265      -7.18367442
C       -2.63749864      -3.50718288      -7.59027326
O       -2.20158901      -2.57093379      -6.92523651
N       -3.40903055      -3.41258865      -8.73794555
C       -3.87519928      -2.23519138      -9.36356699
C       -3.63394728      -0.94624975      -8.88127569
C       -4.13900845       0.17294742      -9.55253615
C       -4.88717995       0.01509580     -10.71616922
C       -5.12737478      -1.26595393     -11.20270813
Br      -6.13908158      -1.49113911     -12.78485554
C       -4.62917302      -2.38736175     -10.53469485
O       -2.77726799      -4.07587351      -4.32341081
H       -2.72047471       0.08077532      -0.27915926
H       -4.14345893      -1.34049772      -1.69883594
H       -0.63688126      -3.43864111      -3.09912664
H        0.77465684      -2.02335348      -1.66796405
H       -2.11143817      -5.53405007      -8.07625837
H       -1.44779060      -4.96265731      -6.54766392
H       -3.70187107      -4.28373775      -9.16536381
H       -3.06163031      -0.77076356      -7.97559163
H       -3.94669440       1.16832489      -9.15906572
H       -5.27593286       0.89043529     -11.22938969
H       -4.83306201      -3.37620357     -10.93584474
C       -0.88158913       0.88158913       0.88158913
C       -1.00252436       0.60057724       2.23980705
C       -1.81147010       1.40896034       3.04444790
C       -2.49867020       2.50805143       2.50382390
C       -2.36211398       2.77438951       1.13231155
C       -1.55933525       1.96279298       0.32281037
C       -3.32554829       3.33572013       3.37279658
N       -3.73466174       3.11893124       4.60665667
N       -4.45193670       4.23657907       4.98145822
C       -4.41440862       5.06651668       3.96053344
S       -5.13512677       6.64817933       3.98074105
C       -3.96373676       7.55831194       2.94201941
C       -2.58167187       7.57740250       3.57588041
O       -1.70729010       6.81127680       3.17919242
N       -2.45538665       8.51808468       4.58609342
C       -1.31740515       8.77387218       5.38268031
C       -0.11513362       8.07001956       5.27631953
C        0.96665888       8.37543378       6.10982228
C        0.85898014       9.39140241       7.05583109
C       -0.33472978      10.09777249       7.16353457
Br      -0.49003224      11.48247743       8.44256656
C       -1.41957416       9.79472764       6.33692783
O       -3.74442200       4.54638642       2.88574389
H       -0.47366408      -0.23883887       2.68403344
H       -1.89560199       1.18059659       4.10659401
H       -2.88042166       3.61637082       0.67785652
H       -1.46881378       2.18519214      -0.73734523
H       -4.32107353       8.58568581       2.81498727
H       -3.90120237       7.11329356       1.94361590
H       -3.27842081       9.06773812       4.80481370
H        0.01691202       7.26583927       4.55905826
H        1.89265799       7.81281359       6.01727963
H        1.70433299       9.62010202       7.69911822
H       -2.34048711      10.36118611       6.44343710
C        0.88158913      -0.88158913       0.88158913
C        1.55005311      -0.32447101       1.96838453
C        2.35759689      -1.13401615       2.77326531
C        2.49811498      -2.50576617       2.50666440
C        1.81462272      -3.04751642       1.40667589
C        1.01169121      -2.23854971       0.59469768
C        3.33991038      -3.32255590       3.37159873
N        4.20581953      -2.95847746       4.29595265
N        4.69737949      -4.12286329       4.84973122
C        4.08410553      -5.11598218       4.24137103
S        4.33236153      -6.78893185       4.64275378
C        2.67468835      -7.45130019       4.33807957
C        1.65731744      -6.80940806       5.26822929
O        0.92675126      -5.90963202       4.86137605
N        1.66556470      -7.34900665       6.54499339
C        0.86494880      -6.96543913       7.64356971
C       -0.07152915      -5.92929335       7.60370852
C       -0.82119555      -5.60097017       8.73882256
C       -0.64538168      -6.30863229       9.92500275
C        0.28325030      -7.34361735       9.96916919
Br       0.52683216      -8.31383502      11.57440905
C        1.03752444      -7.67339391       8.84031128
O        3.23027617      -4.68430156       3.26197458
H        1.45038100       0.73266588       2.20114354
H        2.87318447      -0.68686681       3.62274130
H        1.90049372      -4.10578846       1.16836682
H        0.49261510      -2.67754121      -0.25349562
H        2.68616985      -8.53412062       4.50145615
H        2.37410756      -7.28561796       3.29838632
H        2.34165868      -8.08174528       6.72756867
H       -0.24136959      -5.34424381       6.70511128
H       -1.54103356      -4.78724570       8.69122309
H       -1.23153233      -6.04519202      10.80122757
H        1.75683070      -8.48515300       8.90312662
