158
Properties=species:S:1:pos:R:3 pbc="F F F"
C        1.79149315       1.79149315      -1.79149315
C        2.69845930       2.66966855      -1.20449288
C        3.50366864       3.47659128      -2.01433050
C        3.41749431       3.40828028      -3.41448302
C        2.49725492       2.51537665      -3.98589554
C        1.68458698       1.71191498      -3.17814872
C        4.27850211       4.25640936      -4.22886561
N        5.02875165       5.28193179      -3.87927827
N        5.67610798       5.69943386      -5.02414424
C        5.29369989       4.88913320      -5.98833773
S        5.89285450       4.98358174      -7.61732298
C        5.89078467       3.23073626      -8.07225925
C        6.83943409       2.44119015      -7.18404261
O        6.40306396       1.77700096      -6.24740647
N        8.16860183       2.56253314      -7.55814185
C        9.29237922       1.97782518      -6.93346532
C        9.22268627       1.17977928      -5.78871924
C       10.38385980       0.64346430      -5.22098516
C       11.62706472       0.89598785      -5.79491287
C       11.70178939       1.68707476      -6.93688477
Br      13.38526967       2.03282240      -7.72669623
C       10.54639907       2.22861767      -7.50592495
O        4.37591857       3.96567611      -5.56466970
H        2.79063079       2.73462021      -0.12331972
H        4.21178958       4.15765660      -1.54305848
H        2.40148960       2.43594651      -5.06692497
H        0.97700759       1.02860721      -3.64075796
H        6.20223358       3.13172863      -9.11749648
H        4.88310377       2.80954990      -7.99517024
H        8.36784839       3.16221118      -8.35062513
H        8.27851207       0.95849881      -5.30068669
H       10.31119785       0.02977404      -4.32617540
H       12.52291717       0.47589110      -5.34579105
H       10.63379753       2.84416851      -8.39685635
C       -1.79149315      -1.79149315      -1.79149315
C       -2.98242725      -2.30499818      -1.28519530
C       -3.78715489      -3.11296901      -2.09446652
C       -3.41582288      -3.40800547      -3.41642927
C       -2.21170984      -2.87927814      -3.90753914
C       -1.40033940      -2.07655971      -3.09775158
C       -4.28275712      -4.24535573      -4.23566423
N       -5.31471356      -4.98751107      -3.88773709
N       -5.80882635      -5.53848848      -5.05237123
C       -5.05924019      -5.07969948      -6.03223114
S       -5.33409924      -5.45189152      -7.70776847
C       -4.81395271      -3.89904431      -8.48078315
C       -5.69445293      -2.74671843      -8.02349550
O       -5.29970397      -1.97138329      -7.15638414
N       -6.91367280      -2.69471955      -8.68088446
C       -7.95935927      -1.76740508      -8.47690537
C       -7.92059270      -0.74251281      -7.52807928
C       -9.00256262       0.13217134      -7.37791797
C      -10.13336180      -0.00613285      -8.17847078
C      -10.17574219      -1.02275590      -9.12725083
Br     -11.70547824      -1.21673834     -10.22257172
C       -9.10029153      -1.90159871      -9.27905145
O       -4.04381505      -4.27761711      -5.58483222
H       -3.29649478      -2.08377339      -0.26830255
H       -4.71839032      -3.50636741      -1.68774693
H       -1.89070896      -3.08741705      -4.92623506
H       -0.47075625      -1.67880314      -3.49681337
H       -4.88187205      -4.00049339      -9.56909325
H       -3.76872197      -3.67643255      -8.24266939
H       -7.09548868      -3.41965098      -9.36554504
H       -7.06471775      -0.59668013      -6.87629969
H       -8.95746784       0.92014579      -6.62982526
H      -10.96872232       0.67742280      -8.05329981
H       -9.16059356      -2.68751912     -10.02670970
C       -1.79149315       1.79149315       1.79149315
C       -1.86005683       1.55139835       3.16116554
C       -2.66912060       2.35964113       3.96582869
C       -3.40871796       3.41811441       3.41342524
C       -3.32449056       3.64361056       2.03042599
C       -2.52163626       2.83180315       1.22121127
C       -4.23428777       4.24716016       4.28232915
N       -4.59677400       4.05801750       5.53517021
N       -5.33800870       5.16403945       5.89763792
C       -5.36004316       5.96088690       4.85024076
S       -6.13114453       7.51872581       4.84388889
C       -5.02368365       8.43103931       3.73905721
C       -3.62358921       8.51466155       4.32641610
O       -2.73761083       7.76405965       3.92580092
N       -3.49620833       9.49143637       5.30163212
C       -2.34253407       9.80910016       6.05203549
C       -1.12184311       9.14060209       5.92873958
C       -0.02475389       9.50726855       6.71628681
C       -0.13559323      10.54973475       7.63263746
C       -1.34777131      11.22106297       7.75691464
Br      -1.50769975      12.64127391       8.99581465
C       -2.44776823      10.85689241       6.97628105
O       -4.70779166       5.42735070       3.77112202
H       -1.29018997       0.74415657       3.61422419
H       -2.71202623       2.16361501       5.03686343
H       -3.88422393       4.45341454       1.56672261
H       -2.47208935       3.02213854       0.15214487
H       -5.41830428       9.44186261       3.59129179
H       -4.97829116       7.95578459       2.75374815
H       -4.32944725      10.02159287       5.52964458
H       -0.98634461       8.31796411       5.23338886
H        0.91576660       8.97155230       6.61136160
H        0.72178424      10.82604622       8.24033735
H       -3.38289081      11.39706132       7.09487026
C        1.79149315      -1.79149315       1.79149315
C        1.76221409      -1.63571929       3.17468735
C        2.57148962      -2.44368406       3.97941674
C        3.40903569      -3.41837899       3.41284293
C        3.42257878      -3.55969941       2.01624892
C        2.61953433      -2.74752009       1.20759626
C        4.23222572      -4.25018011       4.28137125
N        4.50600759      -4.12004964       5.56390448
N        5.29329182      -5.20046603       5.90592822
C        5.42904279      -5.92599996       4.81612806
S        6.29709154      -7.43113491       4.76553277
C        5.31852304      -8.33583799       3.53941915
C        3.89389710      -8.54073136       4.03003839
O        2.98742608      -7.82061961       3.61942570
N        3.77086207      -9.58370259       4.93471216
C        2.59687147     -10.01735804       5.58944021
C        1.34557191      -9.41684970       5.42876318
C        0.22884918      -9.89829485       6.12116522
C        0.35084860     -10.98864008       6.97847676
C        1.59378997     -11.59254151       7.13941744
Br       1.76945825     -13.07683808       8.29849197
C        2.71315358     -11.11384979       6.45393833
O        4.81000649      -5.36473257       3.73152531
H        1.11576177      -0.89474985       3.63805910
H        2.53739790      -2.31426875       5.06083801
H        4.05973947      -4.30314948       1.54147213
H        2.64652856      -2.87179111       0.12805309
H        5.78508103      -9.30963332       3.35674434
H        5.30209990      -7.80218426       2.58353974
H        4.62107519     -10.07635633       5.18325318
H        1.19978453      -8.56108712       4.77682593
H       -0.73597802      -9.41440866       5.98871666
H       -0.52206018     -11.35419433       7.51246519
H        3.67206773     -11.60336863       6.59938603
C       -0.00445707       0.01189536      -1.78238275
H       -0.66409135       0.67374010      -2.43557963
H        0.65740317      -0.63156657      -2.45157240
C       -0.90989263      -0.90692880      -0.91072765
C        0.90977584       0.90977584      -0.90977584
C       -0.00465871       1.77757030       0.00794375
H       -0.66225468       2.44313916      -0.64384735
H        0.64322798       2.43503045       0.67728295
C       -1.78241447       0.00034974      -0.00472694
H       -2.45427497      -0.65498947       0.64260836
H       -2.43311707       0.67328779      -0.65473579
C       -0.91132561       0.90220522       0.91563759
C       -0.01476271      -0.02253852       1.78660255
H       -0.67934791      -0.69751639       2.42135241
H        0.63392994       0.61504881       2.47327442
C        0.01484550      -1.77751727      -0.01636693
H        0.67870853      -2.42144646      -0.68295456
H       -0.62264859      -2.45592969       0.64226336
C        1.78714474       0.01002794       0.00389507
H        2.44202412       0.67113390       0.66197326
H        2.45385902      -0.65136977      -0.64189061
C        0.91606151      -0.90478549       0.90901405
