166
Properties=species:S:1:pos:R:3 pbc="F F F"
C        1.79078035       1.79078035      -1.79078035
C        3.12091885       1.45073654      -2.00547523
C        3.92484827       2.26569780      -2.81062485
C        3.40701339       3.43163746      -3.41116604
C        2.06501493       3.75553161      -3.17903968
C        1.26109147       2.93680124      -2.37408033
N        4.27749793       4.23150980      -4.21238415
N        5.59328003       3.88537278      -4.33044691
N        6.17013487       4.80280836      -5.08680209
N        5.26886285       5.73747738      -5.49533059
C        4.10985039       5.38349091      -4.97812618
S        2.63798332       6.22816012      -5.32199042
C        2.92297328       6.77267798      -7.03271184
C        3.05746508       5.57206606      -7.96069944
O        2.06626847       5.01424092      -8.41918524
N        4.37697730       5.19798922      -8.15819672
C        4.86511694       4.11475717      -8.91319787
C        4.07324141       3.32127982      -9.74445348
C        4.63879980       2.25660599     -10.45394109
C        5.99978706       1.97891468     -10.33875671
C        6.79174794       2.77181784      -9.51419123
C        6.23382804       3.83575894      -8.80545582
H        3.54559254       0.55756225      -1.55368457
H        4.96201446       1.96372575      -2.95538684
H        1.58321052       4.63551137      -3.58337249
H        0.22089656       3.20983124      -2.20875788
H        3.80132969       7.42297942      -7.09393739
H        2.06280060       7.36343567      -7.36387331
H        5.07001027       5.67075468      -7.58155790
H        3.01012654       3.50642868      -9.86627538
H        4.01106852       1.64398403     -11.09649724
H        6.42889660       1.14786643     -10.89171317
H        6.86918167       4.43693702      -8.15990149
C        8.19832691       2.49058822      -9.38752034
C        9.37633679       2.25505841      -9.28143347
Br      11.28107914       1.87422662      -9.10989997
C       -1.79078035      -1.79078035      -1.79078035
C       -3.11993171      -1.44876392      -2.00843500
C       -3.92387853      -2.26372731      -2.81356508
C       -3.40704971      -3.43164475      -3.41112244
C       -2.06604064      -3.75750165      -3.17604392
C       -1.26209276      -2.93876949      -2.37111079
N       -4.27753164      -4.23139449      -4.21246575
N       -5.59248688      -3.88313893      -4.33347392
N       -6.16962790      -4.80089173      -5.08922569
N       -5.26929293      -5.73787747      -5.49450042
C       -4.11057190      -5.38502650      -4.97586908
S       -2.63959853      -6.23290803      -5.31562730
C       -2.92252509      -6.77995314      -7.02588487
C       -3.05324503      -5.58075240      -7.95623314
O       -2.06025089      -5.02549643      -8.41394731
N       -4.37174024      -5.20469137      -8.15673164
C       -4.85662123      -4.12193744      -8.91451332
C       -4.06186988      -3.33133816      -9.74576667
C       -4.62428284      -2.26692466     -10.45813938
C       -5.98497731      -1.98662100     -10.34586014
C       -6.77980116      -2.77665780      -9.52129806
C       -6.22502403      -3.84032639      -8.80969239
H       -3.54382000      -0.55403965      -1.55897971
H       -4.96024979      -1.96017708      -2.96070018
H       -1.58508241      -4.63904840      -3.57796356
H       -0.22267786      -3.21334666      -2.20346116
H       -3.80192347      -7.42880639      -7.08751665
H       -2.06281647      -7.37281870      -7.35447442
H       -5.06662999      -5.67520618      -7.58048669
H       -2.99887102      -3.51858419      -9.86537540
H       -3.99432991      -1.65655508     -11.10066480
H       -6.41163317      -1.15579630     -10.90104671
H       -6.86258430      -4.43923331      -8.16420257
C       -8.18610125      -2.49271477      -9.39761945
C       -9.36387758      -2.25491248      -9.29403860
Br     -11.26824229      -1.87040629      -9.12655714
C       -1.79078035       1.79078035       1.79078035
C       -1.21141610       2.72602406       2.63969047
C       -2.02492593       3.52755852       3.44868647
C       -3.42910260       3.40283070       3.41788359
C       -3.99036751       2.45250993       2.55670876
C       -3.17388211       1.65229082       1.74580011
N       -4.20795262       4.23862700       4.27481226
N       -3.58037562       5.09001425       5.13870986
N       -4.52295777       5.70836261       5.82842494
N       -5.76196004       5.30926089       5.43044989
C       -5.57470420       4.42536516       4.47139812
S       -6.88380143       3.71983549       3.58449694
C       -8.08324105       5.08549030       3.55963175
C       -7.52250556       6.27582118       2.79190384
O       -7.59905941       6.33139249       1.56924274
N       -6.91022359       7.20227893       3.62066072
C       -6.25108650       8.39020373       3.25178174
C       -6.25849833       8.91984912       1.96062727
C       -5.56823981      10.10321790       1.67788918
C       -4.86743947      10.76604686       2.68397211
C       -4.86283395      10.24206487       3.97285820
C       -5.55052123       9.06330092       4.26122065
H       -0.13121763       2.84209530       2.68352643
H       -1.53203016       4.24968776       4.09940914
H       -5.05396495       2.27368701       2.47444242
H       -3.63401157       0.92082257       1.08465153
H       -8.37294824       5.36884201       4.57645625
H       -8.99155917       4.74931366       3.04923675
H       -6.79773469       6.92960294       4.59498522
H       -6.79577313       8.43776569       1.14929179
H       -5.57936054      10.50470392       0.66748533
H       -4.33202177      11.68296664       2.45348778
H       -5.52626683       8.66664898       5.27310438
C       -4.13948634      10.91911949       5.01782963
C       -3.53368273      11.48615274       5.89299320
Br      -2.55414951      12.40299754       7.30805867
C        1.79078035      -1.79078035       1.79078035
C        1.22150835      -2.54882612       2.80679615
C        2.03577380      -3.35101899       3.61437813
C        3.43059806      -3.40441934       3.41479949
C        3.98215868      -2.63061596       2.38681157
C        3.16457859      -1.82956327       1.57783119
N        4.21283185      -4.23088272       4.27767731
N        3.60704044      -4.89863639       5.30342289
N        4.55397955      -5.54912418       5.95664159
N        5.77069853      -5.35177401       5.37919828
C        5.56464517      -4.56196335       4.34485895
S        6.82381480      -4.12457930       3.23973977
C        7.85416607      -5.62208049       3.25211654
C        7.07609369      -6.81111885       2.70301804
O        6.99483484      -7.00930521       1.49555458
N        6.47283341      -7.55865002       3.70167981
C        5.64712286      -8.68949498       3.55645414
C        5.43729308      -9.35424890       2.34743274
C        4.59200194     -10.46732823       2.29001672
C        3.95216835     -10.92450448       3.44078562
C        4.16386604     -10.26593077       4.64796021
C        5.00680983      -9.15646022       4.71177276
H        0.14878219      -2.52538601       2.98267115
H        1.55070919      -3.93123475       4.39918312
H        5.04064938      -2.59432747       2.16711752
H        3.61706361      -1.23724046       0.78518161
H        8.23417724      -5.82586413       4.25820514
H        8.72397958      -5.45835708       2.60777293
H        6.51182846      -7.16910720       4.64138719
H        5.92003903      -9.03385736       1.42893422
H        4.43446890     -10.97537809       1.34170280
H        3.29522742     -11.78813968       3.38510908
H        5.15104177      -8.65139759       5.66358083
C        3.50502790     -10.73009910       5.84130846
C        2.95325096     -11.11884008       6.84073763
Br       2.06107431     -11.74740136       8.45673006
C       -0.00445707       0.01189536      -1.78238275
H       -0.66409135       0.67374010      -2.43557963
H        0.65740317      -0.63156657      -2.45157240
C       -0.90989263      -0.90692880      -0.91072765
C        0.90977584       0.90977584      -0.90977584
C       -0.00465871       1.77757030       0.00794375
H       -0.66225468       2.44313916      -0.64384735
H        0.64322798       2.43503045       0.67728295
C       -1.78241447       0.00034974      -0.00472694
H       -2.45427497      -0.65498947       0.64260836
H       -2.43311707       0.67328779      -0.65473579
C       -0.91132561       0.90220522       0.91563759
C       -0.01476271      -0.02253852       1.78660255
H       -0.67934791      -0.69751639       2.42135241
H        0.63392994       0.61504881       2.47327442
C        0.01484550      -1.77751727      -0.01636693
H        0.67870853      -2.42144646      -0.68295456
H       -0.62264859      -2.45592969       0.64226336
C        1.78714474       0.01002794       0.00389507
H        2.44202412       0.67113390       0.66197326
H        2.45385902      -0.65136977      -0.64189061
C        0.91606151      -0.90478549       0.90901405
