158
Properties=species:S:1:pos:R:3 pbc="F F F"
O        7.44138083       0.62856088      -7.11976523
C        7.38119227       1.69676708      -7.72283924
C        6.85541003       2.95948899      -7.04906296
S        5.27403656       2.61164756      -6.22344822
C        5.06333964       4.06831940      -5.31362049
N        5.63000894       5.21017089      -5.63957086
N        5.10958774       6.14771137      -4.79830974
N        4.23113647       5.60846327      -3.96979284
N        4.20920738       4.27021162      -4.23363748
C        3.41090699       3.40445897      -3.42858235
C        3.53481486       2.00983019      -3.45687785
C        2.72359314       1.20728711      -2.64323360
C        1.79101849       1.79101849      -1.79101849
C        1.66594750       3.17445981      -1.73455168
C        2.47520820       3.97806667      -2.54471396
N        7.80322571       1.91492865      -9.02764585
C        8.32559193       0.96195351      -9.92908544
C        8.42563145      -0.40417375      -9.65456573
C        8.95251545      -1.28569703     -10.60608939
C        9.38272718      -0.80223842     -11.83777911
Br      10.09533602      -1.99271739     -13.12033115
C        9.28856889       0.55524971     -12.12854432
C        8.75896545       1.43283345     -11.17670703
H        6.70401377       3.76032340      -7.77922284
H        7.60788600       3.28398376      -6.32280519
H        4.26757055       1.49109081      -4.06373019
H        2.83719806       0.12583547      -2.67926262
H        0.94527087       3.64023174      -1.06682724
H        2.34746237       5.05816843      -2.47610327
H        7.75900097       2.86453039      -9.37649442
H        8.09657928      -0.82498656      -8.70950426
H        9.01860073      -2.34476164     -10.36998127
H        9.62297973       0.94068569     -13.08813347
H        8.69716553       2.48873761     -11.42757797
O       -5.68617242      -8.55762810      -0.94590642
C       -6.50328248      -8.44202101      -1.85549511
C       -6.21477236      -7.57387193      -3.07531769
S       -5.62195837      -5.93843145      -2.54874253
C       -5.09283612      -5.28945704      -4.06298637
N       -5.55009867      -5.70503318      -5.22461884
N       -5.03058290      -4.86303033      -6.16199562
N       -4.27214142      -3.93620168      -5.60104949
N       -4.24564740      -4.20378589      -4.26362318
C       -3.42653558      -3.41577944      -3.40163328
C       -3.13620998      -3.78341409      -2.08189883
C       -2.32450061      -2.97016931      -1.27944391
C       -1.79101849      -1.79101849      -1.79101849
C       -2.05208163      -1.41823145      -3.10464590
C       -2.86100936      -2.22866649      -3.90831297
N       -7.73094525      -9.08685783      -1.92799711
C       -8.30471629      -9.94618672      -0.96572787
C       -7.73339432     -10.22164486       0.27901575
C       -8.36970682     -11.08352494       1.18032394
C       -9.58194242     -11.67458242       0.83825698
Br     -10.43871793     -12.83903344       2.05480160
C      -10.16603042     -11.40972976      -0.39660274
C       -9.52905303     -10.54585298      -1.29359992
H       -7.11320314      -7.44401581      -3.68634107
H       -5.45442444      -8.08691616      -3.67333435
H       -3.48227973      -4.70703870      -1.63307312
H       -2.10987093      -3.27508740      -0.25733782
H       -1.63413384      -0.50251221      -3.51568380
H       -3.04647973      -1.90346978      -4.93178455
H       -8.27563743      -8.95326696      -2.77112138
H       -6.79249593      -9.77780647       0.58920542
H       -7.90639604     -11.28109691       2.14367258
H      -11.11245906     -11.86795528      -0.67138455
H      -10.00514430     -10.35608464      -2.25225216
O       -4.44093875       9.18032344       1.56844475
C       -5.41144086       9.07556905       2.31378869
C       -5.46996870       8.00051692       3.39347636
S       -5.04217915       6.38267666       2.68427653
C       -4.88521242       5.43594963       4.12411747
N       -5.47081571       5.74889705       5.26003792
N       -5.25154643       4.70081939       6.10324303
N       -4.55216466       3.74932624       5.50790168
N       -4.25493038       4.20223713       4.25588896
C       -3.42379915       3.41972864       3.40042052
C       -2.85799155       3.92168730       2.22184405
C       -2.04811385       3.10712003       1.41887995
C       -1.79101849       1.79101849       1.79101849
C       -2.32803055       1.27986513       2.96706331
C       -3.13582364       2.09103528       3.77112990
N       -6.52451745       9.90580071       2.31548204
C       -6.78974858      10.98382822       1.44305408
C       -5.97690060      11.33623540       0.36288743
C       -6.31323291      12.41862073      -0.45894583
C       -7.46597360      13.15411258      -0.20181831
Br      -7.91773878      14.61579940      -1.31058840
C       -8.28797620      12.81570289       0.86868384
C       -7.95054254      11.73189270       1.68607068
H       -6.46995773       7.93996119       3.83364110
H       -4.75777138       8.28012578       4.17677779
H       -2.98110553       4.94721201       1.89407400
H       -1.61688758       3.51731271       0.50809585
H       -2.12720435       0.25513261       3.26999290
H       -3.54187866       1.65583604       4.68401936
H       -7.22086602       9.74605942       3.03310033
H       -5.07222994      10.78648081       0.12238623
H       -5.66585114      12.67248721      -1.29451798
H       -9.18977046      13.38564060       1.07638783
H       -8.60840558      11.48853401       2.51654153
O        8.10107671      -0.74177062       6.34685960
C        8.00116654      -1.72887652       7.07075553
C        7.27570301      -2.98563549       6.60262347
S        5.65440655      -2.54599963       5.90872617
C        5.19357745      -4.05447054       5.19723154
N        5.67401214      -5.21414423       5.59159431
N        4.96799018      -6.16728668       4.92033198
N        4.06056058      -5.61893476       4.12989725
N        4.20575709      -4.26699518       4.24030421
C        3.41358115      -3.40272834       3.42763881
C        3.68180355      -2.03577892       3.28394043
C        2.86941858      -1.23338111       2.47131416
C        1.79101849      -1.79101849       1.79101849
C        1.51957851      -3.14965926       1.90572122
C        2.32951988      -3.95324065       2.71522830
N        8.54467931      -1.85921084       8.34191004
C        9.26106166      -0.88488644       9.07068278
C        9.46826137       0.42566689       8.63342896
C       10.18751473       1.33398621       9.41937930
C       10.70365672       0.93307732      10.64768847
Br      11.67576330       2.15937106      11.70655753
C       10.50500399      -0.36794875      11.09941018
C        9.78343017      -1.27209701      10.31297875
H        7.12747812      -3.68513438       7.43094752
H        7.90334082      -3.46632346       5.84501067
H        4.52812521      -1.54466609       3.74960024
H        3.09633028      -0.17395080       2.37201507
H        0.68366771      -3.59602825       1.37263389
H        2.08505752      -5.01305514       2.78362141
H        8.44368462      -2.75691607       8.79942508
H        9.07836000       0.78243323       7.68517022
H       10.33415379       2.34889491       9.05856148
H       10.90547307      -0.68888141      12.05744441
H        9.64303203      -2.28286211      10.68758697
C       -0.00445707       0.01189536      -1.78238275
H       -0.66409135       0.67374010      -2.43557963
H        0.65740317      -0.63156657      -2.45157240
C       -0.90989263      -0.90692880      -0.91072765
C        0.90977584       0.90977584      -0.90977584
C       -0.00465871       1.77757030       0.00794375
H       -0.66225468       2.44313916      -0.64384735
H        0.64322798       2.43503045       0.67728295
C       -1.78241447       0.00034974      -0.00472694
H       -2.45427497      -0.65498947       0.64260836
H       -2.43311707       0.67328779      -0.65473579
C       -0.91132561       0.90220522       0.91563759
C       -0.01476271      -0.02253852       1.78660255
H       -0.67934791      -0.69751639       2.42135241
H        0.63392994       0.61504881       2.47327442
C        0.01484550      -1.77751727      -0.01636693
H        0.67870853      -2.42144646      -0.68295456
H       -0.62264859      -2.45592969       0.64226336
C        1.78714474       0.01002794       0.00389507
H        2.44202412       0.67113390       0.66197326
H        2.45385902      -0.65136977      -0.64189061
C        0.91606151      -0.90478549       0.90901405
