150
Properties=species:S:1:pos:R:3 pbc="F F F"
C        1.79122450       1.79122450      -1.79122450
C        2.56996323       2.79086526      -1.21420775
C        3.36907958       3.60089464      -2.02593588
C        3.39236484       3.41547814      -3.41673982
C        2.60665508       2.40312263      -3.98394462
C        1.80785747       1.59213716      -3.17028038
C        4.24858030       4.32350466      -4.24337601
O        4.85953556       5.23138561      -3.67997360
C        4.29098569       4.09436546      -5.74708163
S        5.49610252       5.17323080      -6.57468893
C        6.96090263       4.55798053      -5.88026748
N        7.23696915       3.27426655      -5.79813379
N        8.54263468       3.19467048      -5.40728736
N        9.07200652       4.39942212      -5.26195122
N        8.06751331       5.29405742      -5.48234908
C        8.29267067       6.68487275      -5.28962085
C        7.24262469       7.59382514      -5.10890441
C        7.50979544       8.95643766      -4.93180852
C        8.82455570       9.41436117      -4.92524493
Br       9.17673297      11.25637184      -4.69519118
C        9.88019859       8.52026791      -5.07615144
C        9.61691850       7.15781905      -5.24757003
H        2.56286715       2.95095573      -0.13893792
H        3.97331237       4.38040072      -1.56331105
H        2.58859390       2.21756970      -5.05392870
H        1.20198985       0.81023272      -3.62250312
H        3.30485149       4.32720121      -6.15990914
H        4.54132986       3.05279357      -5.96621475
H        6.20468179       7.28252341      -5.04355220
H        6.68220300       9.64688698      -4.78640621
H       10.90968675       8.86910761      -5.06265883
H       10.46289359       6.48194232      -5.36774649
C       -1.79122450      -1.79122450      -1.79122450
C       -1.95745659      -1.47954826      -3.13803139
C       -2.77201300      -2.28458769      -3.93930941
C       -3.42372477      -3.40315457      -3.39770347
C       -3.24457540      -3.70759479      -2.04155213
C       -2.42808530      -2.90159501      -1.24059470
C       -4.30187960      -4.22028652      -4.29329484
O       -4.46159844      -3.85236167      -5.45693466
C       -4.97934872      -5.44887980      -3.70420425
S       -5.87285588      -6.41147776      -4.95968862
C       -4.53519726      -6.93109347      -5.93285990
N       -3.43379055      -7.44568711      -5.42989183
N       -2.72464650      -7.92766485      -6.49228117
N       -3.37399259      -7.73035535      -7.62903193
N       -4.49955584      -7.02800359      -7.31636037
C       -5.36047790      -6.55985936      -8.34682701
C       -6.28130627      -5.52535168      -8.13869628
C       -7.11634348      -5.10225360      -9.17944454
C       -7.02870703      -5.70321430     -10.43224048
Br      -8.16582303      -5.13312171     -11.82935125
C       -6.10010363      -6.71370483     -10.66280949
C       -5.26066332      -7.13471850      -9.62692576
H       -1.46262619      -0.61556703      -3.57456757
H       -2.89534242      -2.03029227      -4.99138945
H       -3.72542928      -4.56144673      -1.57321630
H       -2.29751337      -3.14791762      -0.18929470
H       -5.71224574      -5.11701560      -2.96270050
H       -4.24120897      -6.09622841      -3.22290080
H       -6.34771049      -4.98159155      -7.20145536
H       -7.82089944      -4.29311801      -9.00147873
H       -6.01937982      -7.18116082     -11.64091256
H       -4.54658810      -7.93071546      -9.83527884
C       -1.79122450       1.79122450       1.79122450
C       -2.04445707       1.42117411       3.10940505
C       -2.85878757       2.22691027       3.91021225
C       -3.42337908       3.40452511       3.39667861
C       -3.15713232       3.76714359       2.06944641
C       -2.34093894       2.96033053       1.26900553
C       -4.30554611       4.22094049       4.28897437
O       -4.54537473       3.80370332       5.42181673
C       -4.88773717       5.51205587       3.73263974
S       -5.79702257       6.45617399       4.99082569
C       -4.48851938       6.85399570       6.05663556
N       -3.33730196       7.33398629       5.63808125
N       -2.66226948       7.72322181       6.75910123
N       -3.38035058       7.50356404       7.84946524
N       -4.52172746       6.87882826       7.44336408
C       -5.45884304       6.40570103       8.40262021
C       -6.41838895       5.43352301       8.09344227
C       -7.32796032       5.00342281       9.06665848
C       -7.27688207       5.53478372      10.35249602
Br      -8.51411712       4.95615709      11.65802178
C       -6.31199038       6.48146149      10.68316607
C       -5.39839209       6.90900266       9.71491283
H       -1.61786417       0.51111973       3.52377690
H       -3.05064348       1.92669676       4.93968390
H       -3.56860545       4.66795905       1.62352781
H       -2.14230451       3.25216777       0.24025341
H       -5.59595457       5.25757666       2.93843062
H       -4.09325094       6.14268702       3.32440022
H       -6.46220011       4.94213068       7.12642661
H       -8.06203333       4.24297115       8.81049170
H       -6.25992979       6.89392814      11.68759527
H       -4.65710717       7.65430868      10.00116655
C        1.79122450      -1.79122450       1.79122450
C        2.51196959      -2.83890370       1.22416295
C        3.31116314      -3.64846909       2.03627787
C        3.39244199      -3.41457872       3.41756210
C        2.66482559      -2.35429362       3.97460311
C        1.86591287      -1.54385421       3.16050793
C        4.24571701      -4.32359131       4.24615265
O        4.80267437      -5.27294392       3.69527648
C        4.35182307      -4.04271805       5.73789166
S        5.54748492      -5.13520743       6.56132990
C        7.00661352      -4.59967377       5.79286334
N        7.32504127      -3.33078713       5.65354109
N        8.61737271      -3.31349621       5.21372361
N        9.09772634      -4.54140861       5.09424491
N        8.07081425      -5.38987302       5.38323254
C        8.23897007      -6.79404697       5.23414723
C        7.15122674      -7.66942451       5.12470299
C        7.36292377      -9.04642873       4.98868911
C        8.65938245      -9.55258541       4.95219395
Br       8.93692653     -11.41338551       4.77798395
C        9.75108361      -8.69331696       5.03221739
C        9.54305638      -7.31682238       5.16242881
H        2.45942591      -3.03685178       0.15648311
H        3.86970870      -4.46577520       1.58154024
H        2.69295750      -2.13017511       5.03695970
H        1.30543560      -0.72446328       3.60482682
H        3.37395122      -4.22407515       6.19393547
H        4.64706763      -3.00396353       5.90930702
H        6.12333483      -7.32249305       5.08492952
H        6.50643510      -9.71055621       4.89850487
H       10.76627908      -9.08023496       4.99493916
H       10.41645142      -6.66882708       5.22730390
C       -0.00445707       0.01189536      -1.78238275
H       -0.66409135       0.67374010      -2.43557963
H        0.65740317      -0.63156657      -2.45157240
C       -0.90989263      -0.90692880      -0.91072765
C        0.90977584       0.90977584      -0.90977584
C       -0.00465871       1.77757030       0.00794375
H       -0.66225468       2.44313916      -0.64384735
H        0.64322798       2.43503045       0.67728295
C       -1.78241447       0.00034974      -0.00472694
H       -2.45427497      -0.65498947       0.64260836
H       -2.43311707       0.67328779      -0.65473579
C       -0.91132561       0.90220522       0.91563759
C       -0.01476271      -0.02253852       1.78660255
H       -0.67934791      -0.69751639       2.42135241
H        0.63392994       0.61504881       2.47327442
C        0.01484550      -1.77751727      -0.01636693
H        0.67870853      -2.42144646      -0.68295456
H       -0.62264859      -2.45592969       0.64226336
C        1.78714474       0.01002794       0.00389507
H        2.44202412       0.67113390       0.66197326
H        2.45385902      -0.65136977      -0.64189061
C        0.91606151      -0.90478549       0.90901405
