182
Properties=species:S:1:pos:R:3 pbc="F F F"
C        1.79137006       1.79137006      -1.79137006
C        1.69985486       3.17737632      -1.69531558
C        2.51269884       3.98089114      -2.49968084
C        3.42393628       3.40267395      -3.39668021
C        3.49611851       2.00703886      -3.49430148
C        2.68108966       1.20320567      -2.68879824
C        4.27772604       4.31592076      -4.21704779
O        3.96715204       5.50492078      -4.30448842
C        5.50773724       3.77138848      -4.91049198
S        5.10455177       3.39952286      -6.63774310
C        6.64795795       2.86441545      -7.20298482
N        7.51323030       2.24096383      -6.43652107
N        8.58607018       1.89339203      -7.21135533
C        8.35764844       2.28010581      -8.45675197
C        9.26503805       1.99049177      -9.57268419
C       10.65142138       2.04922842      -9.35251534
C       11.55580862       1.73001703     -10.37088842
C       11.07887673       1.34232497     -11.61851043
Br      12.29606024       0.90447509     -12.99665264
C        9.70774243       1.26153744     -11.85361494
C        8.80572981       1.56976626     -10.82862943
N        7.15870772       2.98429729      -8.47606176
C        6.66909609       3.74006924      -9.62395759
C        5.20823927       3.79099601     -10.03228913
C        5.87041587       5.02606102      -9.52218794
H        1.00420202       3.64345388      -1.00215903
H        2.43373393       5.06417358      -2.41900161
H        4.16460814       1.51336636      -4.19435048
H        2.74721995       0.12080281      -2.77185299
H        5.90220935       2.89782172      -4.38405677
H        6.28451166       4.54379128      -4.86606742
H       11.03671763       2.33188902      -8.37396486
H       12.62418641       1.77667771     -10.17208549
H        9.33161073       0.94180340     -12.82214090
H        7.74243992       1.45553022     -11.02496576
H        7.37423952       3.74226298     -10.45113611
H        4.45419594       3.31338003      -9.42047984
H        4.97655241       3.74361751     -11.09155412
H        6.08875313       5.81376278     -10.23830372
H        5.58165449       5.41892539      -8.55623279
C       -1.79137006      -1.79137006      -1.79137006
C       -1.95359509      -1.48018979      -3.13876188
C       -2.75655576      -2.29293431      -3.94378075
C       -3.39368989      -3.42232367      -3.40727687
C       -3.23417149      -3.71638514      -2.04690222
C       -2.43037112      -2.90136219      -1.24136026
C       -4.22533475      -4.26146613      -4.32389372
O       -4.56420421      -3.79829623      -5.41406080
C       -4.62299034      -5.66059723      -3.90603013
S       -6.29906612      -5.62501111      -3.21774050
C       -6.52715025      -7.30540789      -2.88280009
N       -5.54395772      -8.10610783      -2.54064966
N       -6.07853551      -9.33729092      -2.27499111
C       -7.39222284      -9.27525816      -2.42702523
C       -8.29346442     -10.39640279      -2.13834679
C       -7.88404127     -11.69875284      -2.47037103
C       -8.68559116     -12.80431338      -2.16680953
C       -9.90295015     -12.61548334      -1.52127862
Br     -10.98763807     -14.10595784      -1.10359206
C      -10.32080010     -11.33385299      -1.16824172
C       -9.51054291     -10.23107547      -1.46250712
N       -7.71166303      -8.00725573      -2.90014801
C       -9.03361671      -7.61927203      -3.38023418
C       -9.65639232      -6.26106037      -3.11407172
C       -9.27755914      -6.63354707      -4.50755863
H       -1.46335462      -0.61288072      -3.57357959
H       -2.87899489      -2.04150089      -4.99641333
H       -3.73032344      -4.56254530      -1.57945623
H       -2.31229928      -3.14058701      -0.18698946
H       -3.89948466      -6.08200486      -3.20259832
H       -4.59963740      -6.29453587      -4.80019710
H       -6.92382214     -11.86095590      -2.95779348
H       -8.34196346     -13.80263557      -2.42835059
H      -11.26342605     -11.18431113      -0.64781786
H       -9.83920887      -9.24728516      -1.13644187
H       -9.73472801      -8.44986907      -3.38304153
H       -9.08909962      -5.49092034      -2.60803586
H      -10.71353442      -6.22763165      -2.87055797
H      -10.07992092      -6.85451576      -5.20638296
H       -8.44870691      -6.12549121      -4.98261455
C       -1.79137006       1.79137006       1.79137006
C       -2.36626179       1.26239572       2.94388925
C       -3.16774275       2.07414278       3.75138530
C       -3.39136716       3.41783818       3.41408510
C       -2.81912253       3.93410034       2.24423599
C       -2.01718388       3.12009327       1.43581642
C       -4.24401715       4.23894620       4.32773125
O       -4.94842884       3.66701873       5.16111367
C       -4.21778054       5.74849028       4.22334687
S       -5.62064529       6.30247177       3.21870067
C       -5.39850480       8.01467069       3.30218274
N       -4.21606894       8.57846555       3.39618072
N       -4.39394671       9.93469663       3.36217420
C       -5.68414141      10.19355008       3.21681474
C       -6.22395172      11.54827390       3.05598838
C       -5.65687519      12.59713683       3.79915311
C       -6.10209057      13.91380306       3.64082044
C       -7.11610708      14.19285594       2.73074910
Br      -7.71792116      15.97076238       2.50850444
C       -7.68124931      13.17009154       1.97155397
C       -7.22479081      11.85565940       2.12367529
N       -6.37312068       8.98640495       3.25954115
C       -7.82568870       8.87259698       3.33483724
C       -8.62271388       7.81413411       2.59467642
C       -8.55879491       7.77572849       4.08414144
H       -2.19968596       0.22553333       3.22459563
H       -3.61454792       1.65190600       4.65045520
H       -2.98698245       4.95937486       1.92596766
H       -1.57655780       3.53235363       0.53096431
H       -3.26250603       6.09889488       3.82268693
H       -4.30188735       6.15404539       5.23843762
H       -4.84852594      12.39401774       4.50002783
H       -5.64121715      14.70845202       4.22328044
H       -8.46164958      13.38729628       1.24660917
H       -7.65143720      11.08408413       1.48741458
H       -8.31460400       9.84024441       3.41279019
H       -8.11369050       7.04315180       2.03121352
H       -9.56041084       8.11372890       2.13758429
H       -9.45406985       8.05208329       4.63466650
H       -8.00966233       6.97891902       4.56823131
C        1.79137006      -1.79137006       1.79137006
C        1.83158442      -3.16617530       1.57478704
C        2.64429083      -3.96900449       2.37997550
C        3.42426998      -3.40040612       3.39861434
C        3.36388002      -2.01775924       3.61581959
C        2.54906926      -1.21469110       2.80933320
C        4.28607293      -4.31024704       4.21437464
O        4.07634177      -5.52367397       4.17654550
C        5.40210059      -3.73097926       5.05653785
S        4.82786181      -3.54829140       6.76566452
C        6.26629312      -2.94140959       7.50765551
N        7.13235555      -2.18376766       6.87459200
N        8.10323005      -1.82008176       7.76750573
C        7.80923743      -2.33333018       8.95193861
C        8.59319083      -2.07100412      10.16401906
C        9.99262989      -1.99661231      10.06392294
C       10.77893206      -1.69647668      11.18130533
C       10.16921516      -1.46145407      12.40904289
Br      11.22612401      -1.05000893      13.92105505
C        8.78173455      -1.51403972      12.52712054
C        7.99735280      -1.80249141      11.40428129
N        6.68008893      -3.13192259       8.80705526
C        6.16758209      -4.02417624       9.84136459
C        4.68860986      -4.23023551      10.11267904
C        5.49737382      -5.35689251       9.56439851
H        1.23901162      -3.62398509       0.78681822
H        2.66879550      -5.04364103       2.20447258
H        3.92647237      -1.53538539       4.41046721
H        2.51170813      -0.14218618       2.98598144
H        5.75898112      -2.78480575       4.64030097
H        6.24549394      -4.43040524       5.01847117
H       10.48008748      -2.15877005       9.10371399
H       11.85987249      -1.63794507      11.07513205
H        8.30089650      -1.31344044      13.48121810
H        6.91565656      -1.79330703      11.51397231
H        6.80027199      -4.04235654      10.72501007
H        3.94753642      -3.76324479       9.47727461
H        4.36797080      -4.29628230      11.14747093
H        5.72571311      -6.18468850      10.23041803
H        5.32446959      -5.68456972       8.54777337
C       -0.00445707       0.01189536      -1.78238275
H       -0.66409135       0.67374010      -2.43557963
H        0.65740317      -0.63156657      -2.45157240
C       -0.90989263      -0.90692880      -0.91072765
C        0.90977584       0.90977584      -0.90977584
C       -0.00465871       1.77757030       0.00794375
H       -0.66225468       2.44313916      -0.64384735
H        0.64322798       2.43503045       0.67728295
C       -1.78241447       0.00034974      -0.00472694
H       -2.45427497      -0.65498947       0.64260836
H       -2.43311707       0.67328779      -0.65473579
C       -0.91132561       0.90220522       0.91563759
C       -0.01476271      -0.02253852       1.78660255
H       -0.67934791      -0.69751639       2.42135241
H        0.63392994       0.61504881       2.47327442
C        0.01484550      -1.77751727      -0.01636693
H        0.67870853      -2.42144646      -0.68295456
H       -0.62264859      -2.45592969       0.64226336
C        1.78714474       0.01002794       0.00389507
H        2.44202412       0.67113390       0.66197326
H        2.45385902      -0.65136977      -0.64189061
C        0.91606151      -0.90478549       0.90901405
