169
Properties=species:S:1:pos:R:3 pbc="F F F"
C        0.00000000       0.00000000       0.00000000
C        0.88146603       0.88146603      -0.88146603
C        0.78995084       2.26747230      -0.78541156
C        1.60279482       3.07098711      -1.58977682
C        2.51403226       2.49276992      -2.48677618
C        2.58621448       1.09713484      -2.58439745
C        1.77118563       0.29330164      -1.77889421
C        3.36782202       3.40601674      -3.30714377
O        3.05724802       4.59501676      -3.39458439
C        4.59783322       2.86148445      -4.00058795
S        4.19464774       2.48961884      -5.72783907
C        5.73805393       1.95451143      -6.29308080
N        6.60332628       1.33105981      -5.52661705
N        7.67616616       0.98348801      -6.30145130
C        7.44774441       1.37020179      -7.54684795
C        8.35513403       1.08058774      -8.66278017
C        9.74151735       1.13932439      -8.44261131
C       10.64590460       0.82011300      -9.46098440
C       10.16897270       0.43242094     -10.70860640
C        8.79783841       0.35163341     -10.94371092
C        7.89582579       0.65986224      -9.91872540
N        6.24880369       2.07439327      -7.56615774
C        5.75919206       2.83016522      -8.71405356
C        4.29833525       2.88109198      -9.12238511
C        4.96051185       4.11615700      -8.61228391
H        0.09429799       2.73354986      -0.09225501
H        1.52382991       4.15426955      -1.50909758
H        3.25470411       0.60346234      -3.28444645
H        1.83731592      -0.78910122      -1.86194897
H        4.99230533       1.98791769      -3.47415275
H        5.37460763       3.63388726      -3.95616340
H       10.12681361       1.42198499      -7.46406084
H       11.71428239       0.86677368      -9.26218147
H        8.42170671       0.03189938     -11.91223688
H        6.83253589       0.54562619     -10.11506174
H        6.46433549       2.83235895      -9.54123209
H        3.54429192       2.40347601      -8.51057581
H        4.06664838       2.83371348     -10.18165009
H        5.17884911       4.90385876      -9.32839970
H        4.67175046       4.50902137      -7.64632876
C       11.09629556       0.09884085     -11.75855718
C       11.87292846      -0.18053249     -12.63789095
Br      13.12867817      -0.63225553     -14.05969929
C       -0.88146603      -0.88146603      -0.88146603
C       -0.61209876      -2.24339346      -0.98734248
C       -1.42490345      -3.04808079      -1.79057451
C       -2.51285907      -2.49639369      -2.48432561
C       -2.76458461      -1.12216875      -2.38099341
C       -1.94951418      -0.31700636      -1.57686095
C       -3.35495077      -3.41265870      -3.31337306
O       -2.91887534      -4.52892514      -3.59904869
C       -4.72451791      -2.96206210      -3.77332562
S       -4.60863044      -2.33412400      -5.46935121
C       -6.26772451      -1.95098861      -5.76693303
N       -7.08864887      -1.54807734      -4.82427693
N       -8.29115746      -1.25992355      -5.41002446
C       -8.19029824      -1.45959817      -6.71489775
C       -9.26976162      -1.16491741      -7.66382291
C      -10.59591595      -1.43848914      -7.28904797
C      -11.66264899      -1.12599653      -8.13835647
C      -11.41061681      -0.52995325      -9.36942999
C      -10.10414290      -0.23498984      -9.75405000
C       -9.04015893      -0.53780050      -8.89645400
N       -6.92950697      -1.98594156      -6.97390617
C       -6.51422101      -2.52453622      -8.26465362
C       -5.12738626      -2.32605542      -8.84837066
C       -5.56068999      -3.69219037      -8.43607240
H        0.22256516      -2.68981100      -0.45285702
H       -1.20629022      -4.11219966      -1.86870716
H       -3.57678969      -0.64407841      -2.92174479
H       -2.15572571       0.74828598      -1.50272394
H       -5.14528201      -2.22009244      -3.08900132
H       -5.38962657      -3.83304238      -3.74198935
H      -10.80719827      -1.88645659      -6.31920458
H      -12.68046494      -1.34168554      -7.82108707
H       -9.90494993       0.24697871     -10.70787174
H       -8.03511492      -0.25665326      -9.20145565
H       -7.32035692      -2.52380644      -8.99376317
H       -4.35961652      -1.82677142      -8.27195580
H       -5.04995780      -2.12075286      -9.91130129
H       -5.77873598      -4.41069387      -9.22167771
H       -5.09764959      -4.15492612      -7.57452489
C      -12.50594086      -0.20267699     -10.24507574
C      -13.42327475       0.07141688     -10.97842906
Br     -14.90652606       0.51460348     -12.16419934
C       -0.88146603       0.88146603       0.88146603
C       -2.26744288       0.78071922       0.79467259
C       -3.07093078       1.58511419       1.60751377
C       -2.49268330       2.48684399       2.51405108
C       -1.09714412       2.58912656       2.58147610
C       -0.29334116       1.78358767       1.76645266
C       -3.40582303       3.30702308       3.36813641
O       -4.59607594       3.38969726       3.06107597
C       -2.85959922       4.00610838       4.59419803
S       -2.49452079       5.73323847       4.18434639
C       -1.95631801       6.30509114       5.72423700
N       -1.32768280       5.54337186       6.58994848
N       -0.97917593       6.32272014       7.65920939
C       -1.37057902       7.56614830       7.42806683
C       -1.08164150       8.68587991       8.33098053
C       -1.13527316       8.46994372       9.71823618
C       -0.81643731       9.49220161      10.61836308
C       -0.43423872      10.73952275      10.13623858
C       -0.35855555      10.97051307       8.76411411
C       -0.66638035       9.94168526       7.86634783
N       -2.07863255       7.57940171       6.23132044
C       -2.83960894       8.72332581       5.74047609
C       -2.89647558       9.12683725       4.27849951
C       -4.12779997       8.61492851       4.94622429
H       -2.73351665       0.08387316       0.10271305
H       -4.15419600       1.50074385       1.53225719
H       -0.60358392       3.29286609       3.24616289
H        0.78899616       1.87028982       1.82887001
H       -1.98311131       3.48370959       4.98755487
H       -3.62938575       3.96170601       5.37356652
H       -1.41358963       7.49173299      10.10753681
H       -0.85907113       9.29665632      11.68751009
H       -0.04310498      11.93884632       8.38389167
H       -0.55614782      10.13499480       6.80208120
H       -2.84219859       9.55273556       6.44299238
H       -2.41930997       8.51414862       3.52488515
H       -2.85320815      10.18550384       4.04329997
H       -4.91708187       9.32923104       5.16479465
H       -4.51849992       7.64681547       4.66178521
C       -0.10106206      11.79347673      11.05915480
C        0.17797338      12.67616318      11.83209713
Br       0.62915010      14.10339251      13.08187951
C        0.88146603      -0.88146603       0.88146603
C        2.26477691      -0.72587585       0.85218192
C        3.06795148      -1.53063145       1.66497582
C        2.49166135      -2.48767925       2.51423776
C        1.09958288      -2.64440972       2.52375417
C        0.29613074      -1.83843915       1.70881160
C        3.40340382      -3.30570741       3.37187130
O        4.60657623      -3.33204119       3.10823175
C        2.83934682      -4.07157444       4.54898437
S        2.55689527      -5.79395178       4.06125860
C        1.98423367      -6.44461482       5.55679766
N        1.29478144      -5.74091212       6.42530958
N        0.93710290      -6.57349346       7.45050910
C        1.38466653      -7.79160196       7.18852566
C        1.10583939      -8.95541932       8.03724323
C        1.09935995      -8.79147748       9.43261563
C        0.78700966      -9.85896776      10.28102457
C        0.47158854     -11.10006991       9.73834160
C        0.45606717     -11.28045111       8.35666446
C        0.75708013     -10.20690192       7.51043138
N        2.13679187      -7.73215122       6.02041161
C        2.95921932      -8.82708272       5.51710881
C        3.08607935      -9.17132139       4.04441159
C        4.27094367      -8.64012037       4.77788873
H        2.72898989       0.01410210       0.20521506
H        4.14919164      -1.40311712       1.63488829
H        0.60920585      -3.39123979       3.14216725
H       -0.78361435      -1.96775055       1.72602747
H        1.92925641      -3.59780175       4.92731761
H        3.57727098      -4.02871819       5.35866912
H        1.32492013      -7.81937522       9.86856409
H        0.78218746      -9.70348772      11.35756237
H        0.19270610     -12.24442475       7.92871211
H        0.69413290     -10.36285648       6.43623445
H        2.96772956      -9.68238289       6.18781408
H        2.61396786      -8.54813109       3.29624480
H        3.09260162     -10.22097036       3.76843998
H        5.07858430      -9.33244718       5.00007608
H        4.63421393      -7.64784404       4.54504263
C        0.14529571     -12.20062658      10.60777130
C       -0.12797454     -13.12234279      11.33591868
Br      -0.56982941     -14.61267994      12.51327140
