130
Properties=species:S:1:pos:R:3 pbc="F F F"
C        1.79144970       1.79144970      -1.79144970
C        1.83665325       1.57088127      -3.16543208
C        2.65147842       2.37069355      -3.96954487
C        3.42374003       3.39803125      -3.40591910
C        3.35455049       3.61593461      -2.02103083
C        2.54695197       2.80989932      -1.21549797
C        4.31643607       4.24633804      -4.27414170
S        5.88366701       3.44442391      -4.58323346
O        5.65562042       2.12318979      -5.14272036
O        6.72367152       4.39027387      -5.29636847
C        6.61566874       3.23274033      -2.97339932
C        7.39864839       4.25873901      -2.43404613
C        7.96188745       4.09822058      -1.16680827
C        7.74637189       2.91534526      -0.45733548
Br       8.49599805       2.70925931       1.26599830
C        6.98478235       1.88304952      -1.00698838
C        6.42520319       2.03520883      -2.27664470
H        1.24801442       0.77808734      -3.62032199
H        2.68627770       2.17582191      -5.04114054
H        3.93773008       4.40587470      -1.55088176
H        2.51580629       2.98267762      -0.14265787
H        4.51909713       5.21904227      -3.81417716
H        3.84698946       4.43095604      -5.24636786
H        7.58092420       5.17635242      -2.98976556
H        8.57084775       4.89404426      -0.74415251
H        6.82352032       0.95862900      -0.45765633
H        5.83504426       1.22719552      -2.70493089
C       -1.79144970      -1.79144970      -1.79144970
C       -2.98970247      -2.29298605      -1.29027809
C       -3.79011478      -3.10800420      -2.09359784
C       -3.39954426      -3.42422665      -3.40391948
C       -2.19579576      -2.89779390      -3.89792627
C       -1.39057924      -2.09045871      -3.09131130
C       -4.25630286      -4.31964104      -4.26097191
S       -3.95004970      -6.04629049      -3.91498419
O       -4.12629275      -6.29987466      -2.49536316
O       -4.70396578      -6.82456366      -4.88178442
C       -2.22872334      -6.29274864      -4.30033641
C       -1.85784507      -6.62645338      -5.60713508
C       -0.50759632      -6.80704172      -5.91227827
C        0.45456607      -6.66251364      -4.91110506
Br       2.28346127      -6.89019871      -5.33252163
C        0.08084162      -6.35313973      -3.60252214
C       -1.26833065      -6.17855360      -3.29017246
H       -3.30794795      -2.06168874      -0.27678705
H       -4.71794384      -3.50389560      -1.68140071
H       -1.86377962      -3.12012082      -4.91058611
H       -0.45418147      -1.70257082      -3.48438950
H       -4.07412727      -4.15086027      -5.32732902
H       -5.31897474      -4.13260124      -4.07273738
H       -2.60579416      -6.75416037      -6.38708765
H       -0.21556244      -7.06611643      -6.92736564
H        0.82964006      -6.24836270      -2.82108301
H       -1.55770698      -5.94134604      -2.26811764
C       -1.79144970       1.79144970       1.79144970
C       -1.99035793       1.45486917       3.12773951
C       -2.80547193       2.25576757       3.93047733
C       -3.42428587       3.39984456       3.40355996
C       -3.20077269       3.73240754       2.05833570
C       -2.39323708       2.92617452       1.25293765
C       -4.31854053       4.25072143       4.26765386
S       -5.97366124       3.58169733       4.35596581
O       -5.92004807       2.19993339       4.80154911
O       -6.79182314       4.53791633       5.08057438
C       -6.56054280       3.58688994       2.67437565
C       -7.19247509       4.72852667       2.17043176
C       -7.64104714       4.73740582       0.84846335
C       -7.46335218       3.60703158       0.04866887
Br      -8.05609764       3.62960627      -1.74644485
C       -6.85419069       2.46032902       0.56030054
C       -6.41022755       2.44330701       1.88352216
H       -1.52202142       0.57092743       3.55347490
H       -2.96218730       1.97057211       4.97048074
H       -3.66245889       4.61434537       1.61768228
H       -2.24198917       3.18993930       0.20921332
H       -4.38777277       5.27567191       3.88887188
H       -3.93192009       4.30118394       5.29120934
H       -7.34580222       5.60641291       2.79482706
H       -8.13241098       5.62346834       0.45316519
H       -6.72292390       1.57718303      -0.06030129
H       -5.93913641       1.54650045       2.28153380
C        1.79144970      -1.79144970       1.79144970
C        2.61436394      -2.75090909       1.20769357
C        3.41225277      -3.56404901       2.01541505
C        3.39510892      -3.42117960       3.41140187
C        2.57074733      -2.43880114       3.98196747
C        1.76558663      -1.63196890       3.17479372
C        4.24283821      -4.31336966       4.28070794
S        3.44420608      -5.88347616       4.58364214
O        3.09532765      -6.50736692       3.31883599
O        4.25998900      -6.60952137       5.54080348
C        1.92759987      -5.47215930       5.42204923
C        1.92329633      -5.35243127       6.81570592
C        0.73755089      -5.01740934       7.47195607
C       -0.42996104      -4.81535453       6.73365914
Br      -2.02947167      -4.34412032       7.62461041
C       -0.42935234      -4.95875263       5.34541995
C        0.75169910      -5.30064569       4.68471192
H        2.63932129      -2.87874971       0.12835274
H        4.04000601      -4.31959779       1.54363635
H        2.53499622      -2.29854467       5.06094565
H        1.12200278      -0.88556087       3.63357814
H        4.45405328      -3.84884580       5.24941748
H        5.20313243      -4.52353809       3.79764285
H        2.82778540      -5.52320808       7.39604871
H        0.73061747      -4.92302746       8.55539958
H       -1.34050498      -4.80911536       4.77119526
H        0.74881835      -5.41591021       3.60244212
C       -0.00445707       0.01189536      -1.78238275
H       -0.66409135       0.67374010      -2.43557963
H        0.65740317      -0.63156657      -2.45157240
C       -0.90989263      -0.90692880      -0.91072765
C        0.90977584       0.90977584      -0.90977584
C       -0.00465871       1.77757030       0.00794375
H       -0.66225468       2.44313916      -0.64384735
H        0.64322798       2.43503045       0.67728295
C       -1.78241447       0.00034974      -0.00472694
H       -2.45427497      -0.65498947       0.64260836
H       -2.43311707       0.67328779      -0.65473579
C       -0.91132561       0.90220522       0.91563759
C       -0.01476271      -0.02253852       1.78660255
H       -0.67934791      -0.69751639       2.42135241
H        0.63392994       0.61504881       2.47327442
C        0.01484550      -1.77751727      -0.01636693
H        0.67870853      -2.42144646      -0.68295456
H       -0.62264859      -2.45592969       0.64226336
C        1.78714474       0.01002794       0.00389507
H        2.44202412       0.67113390       0.66197326
H        2.45385902      -0.65136977      -0.64189061
C        0.91606151      -0.90478549       0.90901405
