154
Properties=species:S:1:pos:R:3 pbc="F F F"
C        1.79139368       1.79139368      -1.79139368
C        3.11021404       1.42051954      -2.04210653
C        3.91448980       2.22133665      -2.85632468
C        3.40743814       3.40451263      -3.41523373
C        2.07716599       3.76396304      -3.14949617
C        1.27056038       2.95899854      -2.34241871
C        4.26626242       4.26922857      -4.30094031
S        5.01345598       5.61019991      -3.38432963
O        5.94240216       6.30124329      -4.26133724
O        3.95255664       6.37417683      -2.74976339
C        5.98742464       4.83565938      -2.09165145
C        5.53855664       5.03307221      -0.77859209
C        6.20464360       4.43314584       0.27831670
C        7.31818154       3.62847092       0.03246883
Br       8.13004265       2.84997021       1.57522688
C        7.80587743       3.41489743      -1.28454604
C        8.93184785       2.59720373      -1.55740560
C        9.41477824       2.40046023      -2.84927497
C        8.79205511       3.02862853      -3.90985518
C        7.68111836       3.83964281      -3.67632920
C        7.14166563       4.04631203      -2.37707977
H        3.51976310       0.50952341      -1.61309878
H        4.93857145       1.90574029      -3.04855856
H        1.65663611       4.67816137      -3.56759139
H        0.24135737       3.25259582      -2.15156723
H        3.66298421       4.72213067      -5.09533904
H        5.05019556       3.68464979      -4.78775474
H        4.66577823       5.64717853      -0.56531198
H        5.84645789       4.59433023       1.29291170
H        9.46574453       2.09367079      -0.75399611
H       10.28415875       1.76976004      -3.01718277
H        9.17270877       2.90275223      -4.92062639
H        7.26348280       4.32915175      -4.55216721
C       -1.79139368      -1.79139368      -1.79139368
C       -1.66576095      -3.17708423      -1.72999493
C       -2.47853931      -3.98462148      -2.52899035
C       -3.41404978      -3.41003865      -3.40309608
C       -3.52486223      -2.01197016      -3.45379280
C       -2.71823360      -1.20491079      -2.64883323
C       -4.29979039      -4.27459574      -4.26204518
S       -3.62798361      -4.47296328      -5.90703862
O       -4.44656931      -5.43668654      -6.62172684
O       -3.44001162      -3.15249518      -6.48399007
C       -2.00996191      -5.21693917      -5.68783439
C       -0.91109731      -4.41461405      -6.02450958
C        0.37686115      -4.89309468      -5.84323922
C        0.57729207      -6.17139238      -5.32008332
Br       2.39979593      -6.69858421      -5.10599770
C       -0.51328664      -7.01469262      -4.97734164
C       -0.33250595      -8.31433067      -4.43962055
C       -1.40462750      -9.14324363      -4.11664231
C       -2.69455252      -8.70096230      -4.33502401
C       -2.90773180      -7.42701335      -4.86234522
C       -1.84263616      -6.54078736      -5.18163391
H       -0.94283795      -3.63791537      -1.06163196
H       -2.37155863      -5.06558656      -2.45572512
H       -4.24052277      -1.53730480      -4.12456130
H       -2.82188965      -0.12391633      -2.69971443
H       -5.28913759      -3.81759049      -4.37372583
H       -4.45044743      -5.25900629      -3.81314638
H       -1.04446817      -3.41075307      -6.42304751
H        1.22142485      -4.26067074      -6.10863053
H        0.66435364      -8.71371154      -4.26405354
H       -1.22480157     -10.13556443      -3.71073555
H       -3.54005148      -9.34648173      -4.10955417
H       -3.94587513      -7.15897442      -5.03995221
C       -1.79139368       1.79139368       1.79139368
C       -3.14632008       1.49918478       1.92733525
C       -3.95152973       2.29936011       2.74126129
C       -3.40818453       3.40401043       3.41498954
C       -2.04155114       3.68503197       3.26404209
C       -1.23480345       2.88009096       2.45708321
C       -4.26852493       4.26691927       4.30098710
S       -4.85844447       5.71521727       3.43432378
O       -5.79945464       6.41082026       4.29470779
O       -3.70698643       6.44237032       2.92714012
C       -5.78742962       5.09895018       2.02835568
C       -5.23450903       5.35051602       0.76519589
C       -5.86222386       4.87060386      -0.37335497
C       -7.04120399       4.13240618      -0.25942653
Br      -7.79137619       3.51725603      -1.90384624
C       -7.63411952       3.86724716       1.00395422
C       -8.82825047       3.11518571       1.14302099
C       -9.41352606       2.86810380       2.38288358
C       -8.82736158       3.37895642       3.52422082
C       -7.65142446       4.12283242       3.42283349
C       -7.00871280       4.37627402       2.18007061
H       -3.58381763       0.64991931       1.40864834
H       -5.00530197       2.04514057       2.84242776
H       -1.59213885       4.53742823       3.77282180
H       -0.17748813       3.11196052       2.35607176
H       -3.69444087       4.62232934       5.16368371
H       -5.12197214       3.70845976       4.69216819
H       -4.31007603       5.91395913       0.65423358
H       -5.42311851       5.07278668      -1.34802878
H       -9.33599249       2.70506047       0.27235847
H      -10.33245840       2.29090731       2.44773585
H       -9.28622077       3.21376137       4.49610524
H       -7.26545914       4.52244928       4.35689334
C        1.79139368      -1.79139368       1.79139368
C        1.35428811      -3.06246881       2.15608318
C        2.16428524      -3.87336230       2.95450359
C        3.41180582      -3.41269569       3.40268299
C        3.83473091      -2.12818147       3.02771282
C        3.02867154      -1.32078659       2.22251949
C        4.29453944      -4.28450864       4.25738323
S        4.09259574      -3.91943823       5.99595155
O        4.84992725      -4.89617051       6.75888494
O        4.36954876      -2.50745076       6.19949735
C        2.35752338      -4.20097411       6.35623799
C        1.60273902      -3.06568165       6.68180027
C        0.24449148      -3.18510641       6.92987486
C       -0.37049056      -4.43539106       6.84928314
Br      -2.24767501      -4.45522778       7.19723321
C        0.36589137      -5.60789536       6.53153417
C       -0.23955240      -6.88687352       6.43913605
C        0.48836802      -8.03638006       6.13976536
C        1.85112050      -7.94320748       5.93621083
C        2.47823957      -6.69970348       6.01914732
C        1.76833220      -5.49950464       6.29722060
H        0.38861168      -3.43259968       1.82117392
H        1.80770083      -4.86789630       3.21727318
H        4.79733187      -1.74254431       3.36251270
H        3.37578496      -0.33016255       1.93957290
H        5.34955033      -4.11528149       4.01562210
H        4.09254581      -5.34424159       4.08581270
H        2.05975774      -2.07966117       6.73884982
H       -0.33028975      -2.29637429       7.18179188
H       -1.30719449      -7.01411250       6.60649344
H       -0.01159386      -9.00000783       6.08268758
H        2.43528540      -8.83571905       5.72508295
H        3.55634006      -6.70637461       5.88208709
C       -0.00445707       0.01189536      -1.78238275
H       -0.66409135       0.67374010      -2.43557963
H        0.65740317      -0.63156657      -2.45157240
C       -0.90989263      -0.90692880      -0.91072765
C        0.90977584       0.90977584      -0.90977584
C       -0.00465871       1.77757030       0.00794375
H       -0.66225468       2.44313916      -0.64384735
H        0.64322798       2.43503045       0.67728295
C       -1.78241447       0.00034974      -0.00472694
H       -2.45427497      -0.65498947       0.64260836
H       -2.43311707       0.67328779      -0.65473579
C       -0.91132561       0.90220522       0.91563759
C       -0.01476271      -0.02253852       1.78660255
H       -0.67934791      -0.69751639       2.42135241
H        0.63392994       0.61504881       2.47327442
C        0.01484550      -1.77751727      -0.01636693
H        0.67870853      -2.42144646      -0.68295456
H       -0.62264859      -2.45592969       0.64226336
C        1.78714474       0.01002794       0.00389507
H        2.44202412       0.67113390       0.66197326
H        2.45385902      -0.65136977      -0.64189061
C        0.91606151      -0.90478549       0.90901405
