162
Properties=species:S:1:pos:R:3 pbc="F F F"
C        1.79139368       1.79139368      -1.79139368
C        3.11021404       1.42051954      -2.04210653
C        3.91448980       2.22133665      -2.85632468
C        3.40743814       3.40451263      -3.41523373
C        2.07716599       3.76396304      -3.14949617
C        1.27056038       2.95899854      -2.34241871
C        4.26626242       4.26922857      -4.30094031
S        5.01345598       5.61019991      -3.38432963
O        5.94240216       6.30124329      -4.26133724
O        3.95255664       6.37417683      -2.74976339
C        5.98742464       4.83565938      -2.09165145
C        5.53855664       5.03307221      -0.77859209
C        6.20464360       4.43314584       0.27831670
C        7.31818154       3.62847092       0.03246883
C        7.80587743       3.41489743      -1.28454604
C        8.93184785       2.59720373      -1.55740560
C        9.41477824       2.40046023      -2.84927497
C        8.79205511       3.02862853      -3.90985518
C        7.68111836       3.83964281      -3.67632920
C        7.14166563       4.04631203      -2.37707977
H        3.51976310       0.50952341      -1.61309878
H        4.93857145       1.90574029      -3.04855856
H        1.65663611       4.67816137      -3.56759139
H        0.24135737       3.25259582      -2.15156723
H        3.66298421       4.72213067      -5.09533904
H        5.05019556       3.68464979      -4.78775474
H        4.66577823       5.64717853      -0.56531198
H        5.84645789       4.59433023       1.29291170
H        9.46574453       2.09367079      -0.75399611
H       10.28415875       1.76976004      -3.01718277
H        9.17270877       2.90275223      -4.92062639
H        7.26348280       4.32915175      -4.55216721
C        7.93050167       3.04131181       1.19604446
C        8.44331977       2.54956604       2.17053904
Br       9.27250327       1.75445474       3.74621437
C       -1.79139368      -1.79139368      -1.79139368
C       -3.11207184      -1.42374382      -2.03702444
C       -3.91638795      -2.22453109      -2.85123209
C       -3.40747042      -3.40448923      -3.41522485
C       -2.07532962      -3.76072610      -3.15456948
C       -1.26871766      -2.95576300      -2.34749697
C       -4.26635801      -4.26912436      -4.30094893
S       -5.00675390      -5.61508899      -3.38614262
O       -5.93625832      -6.30629058      -4.26243380
O       -3.94165669      -6.37776854      -2.75707164
C       -5.97914537      -4.84737413      -2.08821597
C       -5.52573154      -5.04737745      -0.77711195
C       -6.19042996      -4.45263906       0.28359627
C       -7.30711620      -3.65058836       0.04352092
C       -7.79941804      -3.43452964      -1.27137322
C       -8.92865715      -2.61941659      -1.53838343
C       -9.41606720      -2.42024890      -2.82819734
C       -8.79465843      -3.04334862      -3.89253177
C       -7.68059145      -3.85170944      -3.66478949
C       -7.13660752      -4.06065460      -2.36779531
H       -3.52306138      -0.51527897      -1.60404493
H       -4.94198778      -1.91144604      -3.03943649
H       -1.65331685      -4.67239281      -3.57667921
H       -0.23806677      -3.24682959      -2.16062405
H       -3.66411843      -4.71781777      -5.09851772
H       -5.05350732      -3.68545063      -4.78364215
H       -4.65047333      -5.65948894      -0.56830647
H       -5.82870583      -4.61579083       1.29662025
H       -9.46164079      -2.11991080      -0.73185985
H      -10.28784067      -1.79166977      -2.99159112
H       -9.17873271      -2.91558380      -4.90177089
H       -7.26412827      -4.33732410      -4.54334939
C       -7.91768848      -3.06877554       1.21069500
C       -8.42904276      -2.58150730       2.18820329
Br      -9.25585939      -1.79363577       3.76875153
C       -1.79139368       1.79139368       1.79139368
C       -2.92486399       2.39530757       1.25266855
C       -3.73723983       3.19409030       2.06082100
C       -3.41386021       3.40299591       3.41032838
C       -2.26643087       2.78883508       3.93535925
C       -1.45895013       1.98342525       3.12960225
C       -4.28952109       4.25661886       4.29029137
S       -3.67623034       5.93253229       4.39922288
O       -4.64790662       6.72811389       5.12896218
O       -2.30708787       5.88535083       4.88405817
C       -3.64646202       6.55256442       2.71570904
C       -2.37869456       6.79999099       2.17153540
C       -2.26081811       7.23699437       0.86166027
C       -3.40504635       7.42435914       0.08477815
C       -4.70553115       7.19253227       0.60725748
C       -5.88084056       7.37137198      -0.16575537
C       -7.15513676       7.15522325       0.35415343
C       -7.29365128       6.76519726       1.67169028
C       -6.15757822       6.57957076       2.45994139
C       -4.83903931       6.76493950       1.96107862
H       -3.18690005       2.24739900       0.20808624
H       -4.62485568       3.64637193       1.62164270
H       -1.98874952       2.93471968       4.97891967
H       -0.57636736       1.51317583       3.55597723
H       -4.31248368       3.85765989       5.31031035
H       -5.32041027       4.27283653       3.92935330
H       -1.47297983       6.64947395       2.75581495
H       -1.27116362       7.42571941       0.45099339
H       -5.82447331       7.69276305      -1.20382492
H       -8.03249253       7.30793347      -0.26932445
H       -8.28312647       6.61580476       2.09715615
H       -6.34284853       6.30651789       3.49543534
C       -3.17431389       7.86729537      -1.26584024
C       -2.98107545       8.23825445      -2.39698314
Br      -2.66862525       8.83806393      -4.22594554
C        1.79139368      -1.79139368       1.79139368
C        2.62564960      -2.74083509       1.20635542
C        3.43961519      -3.54108077       2.01145517
C        3.41509339      -3.40419508       3.40789603
C        2.56623144      -2.44427727       3.98011648
C        1.75876728      -1.63843782       3.17477253
C        4.29600239      -4.25805610       4.28237282
S        3.41760891      -5.68549710       4.90487950
O        4.36503202      -6.53586150       5.60408918
O        2.23957588      -5.21983442       5.61708657
C        2.86734193      -6.59072469       3.45666885
C        1.48292935      -6.62669483       3.24059677
C        0.97332755      -7.26509681       2.12104839
C        1.84049341      -7.86620642       1.20748380
C        3.24786544      -7.85707365       1.40038181
C        4.14717389      -8.45677352       0.48250976
C        5.52600242      -8.45678248       0.68172854
C        6.04809312      -7.86657271       1.81587299
C        5.19108034      -7.26689538       2.73911466
C        3.78107198      -7.22296316       2.56102229
H        2.65315100      -2.86272953       0.12650475
H        4.09272248      -4.26824946       1.53189837
H        2.52398083      -2.31690421       5.06150382
H        1.11082240      -0.89782262       3.63687539
H        4.63854817      -3.68860270       5.15330305
H        5.18767769      -4.58950930       3.74541310
H        0.78960134      -6.15465218       3.93401522
H       -0.10315212      -7.28626190       1.96476665
H        3.78335328      -8.94784762      -0.41778946
H        6.18252796      -8.93162127      -0.04304768
H        7.12041970      -7.87997065       1.99569704
H        5.66772779      -6.85320193       3.62387204
C        1.21257595      -8.49101920       0.07217387
C        0.68669507      -9.01429990      -0.87864820
Br      -0.16360983      -9.86040054      -2.41604708
C       -0.00445707       0.01189536      -1.78238275
H       -0.66409135       0.67374010      -2.43557963
H        0.65740317      -0.63156657      -2.45157240
C       -0.90989263      -0.90692880      -0.91072765
C        0.90977584       0.90977584      -0.90977584
C       -0.00465871       1.77757030       0.00794375
H       -0.66225468       2.44313916      -0.64384735
H        0.64322798       2.43503045       0.67728295
C       -1.78241447       0.00034974      -0.00472694
H       -2.45427497      -0.65498947       0.64260836
H       -2.43311707       0.67328779      -0.65473579
C       -0.91132561       0.90220522       0.91563759
C       -0.01476271      -0.02253852       1.78660255
H       -0.67934791      -0.69751639       2.42135241
H        0.63392994       0.61504881       2.47327442
C        0.01484550      -1.77751727      -0.01636693
H        0.67870853      -2.42144646      -0.68295456
H       -0.62264859      -2.45592969       0.64226336
C        1.78714474       0.01002794       0.00389507
H        2.44202412       0.67113390       0.66197326
H        2.45385902      -0.65136977      -0.64189061
C        0.91606151      -0.90478549       0.90901405
