161
Properties=species:S:1:pos:R:3 pbc="F F F"
C        0.00000000       0.00000000       0.00000000
C        0.88196522       0.88196522      -0.88196522
C        0.34372706       1.48141047      -2.01869663
C        1.15297633       2.28289412      -2.82753776
C        2.50194604       2.49448151      -2.50188155
C        3.02745878       1.87990543      -1.35524023
C        2.21984546       1.07675660      -0.54651467
C        3.38212619       3.33734592      -3.39377452
S        4.24778484       2.30271912      -4.61242277
C        5.06781121       3.50466305      -5.54740507
N        5.03702602       4.78745347      -5.26480316
N        5.78697744       5.44316069      -6.20001887
C        6.29884063       4.55748927      -7.04039324
C        7.19897439       4.92556554      -8.14148436
C        8.30988937       4.15387528      -8.51372532
C        9.14028762       4.55575325      -9.56867978
C        8.88955120       5.75426876     -10.23145956
C        7.82149831       6.55809800      -9.84700472
C        6.98490379       6.14404121      -8.80926818
N        5.81553061       3.30087967      -6.68687557
C        6.07240921       2.07857601      -7.44297627
C        6.51823516       0.79962473      -6.75591806
C        5.21102960       0.83377672      -7.47184360
H       -0.69851893       1.32809558      -2.28546150
H        0.72450160       2.73895400      -3.71912638
H        4.07359793       2.01854258      -1.08969998
H        2.64475439       0.60644133       0.33647313
H        4.11302403       3.87885434      -2.78183588
H        2.77092491       4.08827177      -3.90746488
H        8.56172571       3.23842043      -7.98404467
H        9.98431099       3.93165466      -9.85389189
H        7.63443154       7.50893642     -10.33964865
H        6.15881214       6.78888413      -8.50825207
H        6.54488820       2.27795382      -8.39990472
H        6.51282035       0.73772833      -5.67156413
H        7.33613978       0.24411454      -7.20407253
H        5.14299562       0.28874620      -8.40959952
H        4.29527557       0.77621945      -6.90232484
C        9.74888329       6.16950978     -11.30975602
C       10.46857391       6.51727414     -12.21282931
Br      11.63225278       7.07957969     -13.67302243
C       -0.88196522      -0.88196522      -0.88196522
C       -1.96495098      -1.55658338      -0.32229979
C       -2.76708095      -2.36745380      -1.12887346
C       -2.49522012      -2.50379870      -2.49929027
C       -1.39835693      -1.81959899      -3.04464851
C       -0.59435436      -1.00984423      -2.23891814
C       -3.34608551      -3.40404755      -3.36311358
S       -2.63173912      -5.07306002      -3.45812759
C       -3.83586477      -5.89855876      -4.38545580
N       -4.89446411      -5.30543897      -4.88937957
N       -5.62611231      -6.24587182      -5.55817287
C       -5.00065577      -7.41042752      -5.48563986
C       -5.49496697      -8.62719419      -6.14386313
C       -4.65094109      -9.55667098      -6.76987789
C       -5.17693703     -10.69839220      -7.38939142
C       -6.55460186     -10.89701291      -7.42366475
C       -7.41214392      -9.96368698      -6.85077011
C       -6.88296185      -8.83832568      -6.21692565
N       -3.86942140      -7.24159403      -4.69227042
C       -2.97677814      -8.32535414      -4.29182921
C       -1.46826007      -8.19536165      -4.41015625
C       -2.08980965      -8.36151532      -3.06532496
H       -2.18954812      -1.46224762       0.73675760
H       -3.60545825      -2.89793925      -0.67918449
H       -1.16002176      -1.92018497      -4.10163376
H        0.25283192      -0.48945412      -2.67810040
H       -3.42618892      -2.97761118      -4.36991415
H       -4.36072286      -3.45430928      -2.95162941
H       -3.57482001      -9.40551097      -6.80385984
H       -4.50259786     -11.41639797      -7.85086171
H       -8.49020092     -10.09572037      -6.89709532
H       -7.56568107      -8.10723852      -5.78302875
H       -3.37745536      -9.30274895      -4.54254243
H       -1.02587068      -7.23556283      -4.66067930
H       -0.92052830      -9.03277675      -4.83102180
H       -1.95352278      -9.31872602      -2.56909252
H       -2.06863023      -7.53700725      -2.36818238
C       -7.09354789     -12.06663213      -8.06796907
C       -7.54491518     -13.04618823      -8.60757394
Br      -8.27473793     -14.63004759      -9.48006938
C       -0.88196522       0.88196522       0.88196522
C       -2.25137200       0.95625857       0.63620359
C       -3.05575170       1.76781174       1.43984476
C       -2.49750766       2.50435345       2.49644799
C       -1.11604232       2.41977878       2.72678333
C       -0.31023268       1.61004869       1.92283536
C       -3.36439869       3.40364762       3.34520032
S       -3.37328974       5.09946146       2.69017553
C       -4.50296002       5.86199160       3.75492771
N       -5.05864080       5.25276509       4.77787676
N       -5.89013897       6.14256440       5.39745363
C       -5.82285769       7.30548576       4.76837969
C       -6.55861609       8.49812360       5.20928460
C       -6.01600152       9.79127635       5.17021210
C       -6.76037452      10.89414146       5.61020467
C       -8.03754168      10.70597519       6.13176265
C       -8.57598847       9.42680122       6.22381132
C       -7.83921236       8.33347212       5.76552870
N       -4.98065328       7.15184965       3.67078292
C       -4.73658298       8.18694734       2.67043118
C       -3.33024136       8.53142978       2.21210681
C       -4.30790955       7.97482458       1.23391580
H       -2.69986780       0.39277417      -0.17760383
H       -4.12360477       1.82604003       1.23293717
H       -0.65854305       2.99167042       3.53162703
H        0.75847806       1.55891296       2.11428769
H       -2.99102066       3.40672108       4.37597252
H       -4.38614166       3.00789090       3.37262900
H       -5.00338435       9.96581665       4.81498981
H       -6.32765893      11.89041674       5.55178187
H       -9.56081591       9.26677391       6.65542679
H       -8.26657033       7.33436354       5.85501448
H       -5.40661713       9.03385000       2.78227961
H       -2.49385035       7.90987725       2.51838521
H       -3.06690381       9.58176802       2.13565501
H       -4.70297001       8.65466606       0.48370526
H       -4.15295563       6.98158808       0.83927615
C       -8.79755513      11.83958588       6.59100808
C       -9.43406639      12.78898483       6.97562614
Br     -10.46325126      14.32408264       7.59752100
C        0.88196522      -0.88196522       0.88196522
C        0.65242743      -0.93628644       2.25512028
C        1.46351896      -1.73866797       3.06122128
C        2.50383431      -2.49526063       2.49921416
C        2.72227118      -2.42533339       1.11499986
C        1.91311626      -1.62201325       0.30798723
C        3.39776536      -3.33893821       3.37654307
S        4.87646097      -2.40806700       3.87839876
C        5.63987356      -3.54155680       4.93844897
N        5.18252703      -4.75462634       5.15212928
N        6.02297690      -5.37252320       6.03465690
C        7.01037385      -4.54551191       6.34083739
C        8.11873423      -4.91648852       7.23080153
C        9.44709795      -4.52627908       7.00411294
C       10.46766476      -4.91443682       7.88261906
C       10.17307693      -5.73097483       8.97122777
C        8.87059148      -6.16852153       9.18748801
C        7.85374783      -5.76280075       8.32166461
N        6.77156986      -3.33467161       5.69704438
C        7.58604181      -2.13565734       5.87226234
C        8.06768716      -1.32300392       4.68308688
C        7.14174927      -0.70207328       5.67282738
H       -0.14851814      -0.35696866       2.70658762
H        1.28142969      -1.76634403       4.13480826
H        3.53090925      -2.99255403       0.65837721
H        2.09873529      -1.57805852      -0.76207122
H        3.69612088      -4.24364242       2.83395096
H        2.84074177      -3.66266282       4.26325696
H        9.71787220      -3.93019556       6.13612305
H       11.48743554      -4.58341779       7.69900420
H        8.63564184      -6.82905937      10.01831540
H        6.83910360      -6.12291512       8.49392961
H        8.30199295      -2.23888827       6.68186552
H        7.69023223      -1.54315122       3.68872936
H        9.10481485      -1.00248655       4.67702545
H        7.55615401       0.05176771       6.33695502
H        6.13027534      -0.46818152       5.37536300
C       11.22456151      -6.13551825       9.86806933
C       12.10517984      -6.47432337      10.61917415
Br      13.52906521      -7.02214258      11.83364710
