174
Properties=species:S:1:pos:R:3 pbc="F F F"
C        1.79186925       1.79186925      -1.79186925
C        1.25363108       2.39131449      -2.92860065
C        2.06288035       3.19279814      -3.73744178
C        3.41185006       3.40438553      -3.41178557
C        3.93736280       2.78980945      -2.26514425
C        3.12974948       1.98666063      -1.45641870
C        4.29203022       4.24724994      -4.30367855
S        5.15768886       3.21262314      -5.52232680
C        5.97771524       4.41456708      -6.45730909
N        5.94693004       5.69735749      -6.17470719
N        6.69688147       6.35306471      -7.10992289
C        7.20874466       5.46739329      -7.95029727
C        8.10887841       5.83546956      -9.05138838
C        9.21979340       5.06377930      -9.42362935
C       10.05019164       5.46565727     -10.47858381
C        9.79945522       6.66417278     -11.14136359
Br      10.92723230       7.20913009     -12.55650686
C        8.73140233       7.46800202     -10.75690874
C        7.89480782       7.05394524      -9.71917220
N        6.72543464       4.21078369      -7.59677960
C        6.98231324       2.98848003      -8.35288030
C        7.42813919       1.70952876      -7.66582209
C        6.12093363       1.74368075      -8.38174763
H        0.21138509       2.23799960      -3.19536552
H        1.63440562       3.64885803      -4.62903040
H        4.98350195       2.92844661      -1.99960401
H        3.55465842       1.51634535      -0.57343089
H        5.02292806       4.78875836      -3.69173991
H        3.68082893       4.99817579      -4.81736890
H        9.47162974       4.14832445      -8.89394869
H       10.89421501       4.84155868     -10.76379592
H        8.54433557       8.41884044     -11.24955267
H        7.06871617       7.69878816      -9.41815609
H        7.45479222       3.18785784      -9.30980874
H        7.42272438       1.64763235      -6.58146815
H        8.24604380       1.15401856      -8.11397655
H        6.05289964       1.19865022      -9.31950354
H        5.20517959       1.68612348      -7.81222887
C       -1.79186925      -1.79186925      -1.79186925
C       -3.17108348      -1.80737009      -1.59509266
C       -3.97575878      -2.61888585      -2.39847565
C       -3.40770660      -3.41420846      -3.40610610
C       -2.01662212      -3.38829764      -3.58739675
C       -1.21059824      -2.57864266      -2.78358790
C       -4.27646773      -4.31277871      -4.25371226
S       -4.37258605      -5.98141578      -3.53863697
C       -5.49083865      -6.74201025      -4.61674251
N       -5.98596653      -6.15188059      -5.68114759
N       -6.82730731      -7.03365636      -6.29890540
C       -6.82644200      -8.17384880      -5.62614441
C       -7.58998129      -9.35481355      -6.05094152
C       -7.09799188     -10.66435309      -5.94485708
C       -7.86680167     -11.75532140      -6.37230964
C       -9.11633798     -11.54081649      -6.94783712
Br     -10.14641287     -13.01309114      -7.53336525
C       -9.60277520     -10.24737333      -7.10616456
C       -8.84257032      -9.16496794      -6.66038699
N       -6.01927820      -8.00970467      -4.50401505
C       -5.85048664      -9.01471606      -3.45847086
C       -4.47552631      -9.39236289      -2.93560083
C       -5.46634603      -8.76451782      -2.01549815
H       -3.62725124      -1.19793731      -0.81956167
H       -5.05182222      -2.63069556      -2.22977627
H       -1.55210213      -4.00611554      -4.35333489
H       -0.13450260      -2.57336749      -2.93656457
H       -3.86646803      -4.36798007      -5.26897823
H       -5.28099780      -3.88166993      -4.33370590
H       -6.10612599     -10.86192749      -5.54584941
H       -7.47413205     -12.76368992      -6.26174765
H      -10.56467291     -10.06816012      -7.57989565
H       -9.22866102      -8.15512803      -6.80187136
H       -6.54731927      -9.84045368      -3.56468586
H       -3.60590280      -8.81335512      -3.23256697
H       -4.25468311     -10.44792529      -2.81143052
H       -5.91346262      -9.40103936      -1.25655142
H       -5.28862695      -7.76343302      -1.65147197
C       -1.79186925       1.79186925       1.79186925
C       -3.15943814       1.87522256       1.53888553
C       -3.96377363       2.68677963       2.34256702
C       -3.40736750       3.41426318       3.40639049
C       -2.02771122       3.32064729       3.64395800
C       -1.22193392       2.51090693       2.83998795
C       -4.27397573       4.31365762       4.25532535
S       -4.26971851       6.01312597       3.60979432
C       -5.40107442       6.77603013       4.67248686
N       -5.96588417       6.16423086       5.68887969
N       -6.79586673       7.05521174       6.30879061
C       -6.71856105       8.22123166       5.68664251
C       -7.45011241       9.41550168       6.13012228
C       -6.90007427      10.70578501       6.10134276
C       -7.64073614      11.81033858       6.54335799
C       -8.92184282      11.62643771       7.05671106
Br      -9.91432079      13.11636353       7.66218493
C       -9.46793274      10.34981349       7.13856686
C       -8.73471156       9.25494042       6.67827327
N       -5.87107740       8.06900011       4.59292041
C       -5.61561712       9.10828088       3.59977557
C       -4.20482223       9.44741454       3.15125326
C       -5.18007489       8.90177927       2.16450784
H       -3.60649651       1.31881879       0.71943491
H       -5.03010617       2.75215805       2.13002983
H       -1.57155237       3.88545753       4.45454267
H       -0.15461735       2.45270234       3.03711498
H       -3.90638056       4.30887828       5.28816748
H       -5.29805066       3.92349775       4.27482521
H       -5.88451944      10.87661708       5.75276636
H       -7.20214269      12.80447894       6.49294798
H      -10.45604665      10.19291130       7.56377073
H       -9.16813781       8.25776330       6.75975930
H       -6.28152910       9.95829499       3.71263471
H       -3.37364821       8.81947442       3.45870225
H       -3.93519837      10.49666799       3.08217256
H       -5.56711379       9.58800720       1.41593241
H       -5.02845611       7.90990751       1.76516831
C        1.79186925      -1.79186925       1.79186925
C        1.21360579      -2.55881347       2.80112697
C        2.02206276      -3.36033464       3.61072288
C        3.41105680      -3.40445671       3.41250766
C        3.97606509      -2.62270838       2.39354304
C        3.16903743      -1.81939372       1.58439765
C        4.28610820      -4.24896599       4.30788451
S        4.91411909      -3.27202517       5.70649454
C        5.76394131      -4.48228646       6.60336364
N        5.89818554      -5.72436462       6.19644456
N        6.62013781      -6.40090072       7.13883054
C        6.95056684      -5.56503430       8.11083408
C        7.77429215      -5.96020014       9.26124406
C        8.75495759      -5.12908669       9.82315776
C        9.51775617      -5.55949874      10.91717781
C        9.33395662      -6.84069740      11.43033758
Br      10.37153723      -7.42253025      12.89880177
C        8.40032760      -7.69816302      10.85782247
C        7.62842911      -7.25814254       9.78135360
N        6.37188758      -4.33041563       7.83069472
C        6.42208856      -3.17705531       8.72452969
C        6.79266807      -1.79480738       8.21601458
C        5.43360373      -2.03161810       8.78114017
H        0.14005985      -2.53640316       2.96828721
H        1.56074901      -3.94852889       4.40301615
H        5.05177303      -2.63034939       2.22943014
H        3.62446461      -1.21835903       0.80161103
H        5.12650052      -4.64862912       3.72829669
H        3.71208364      -5.10612606       4.67816393
H        8.95729973      -4.14213713       9.41446602
H       10.25854088      -4.89090559      11.35012314
H        8.26944675      -8.70989944      11.23338249
H        6.90913779      -7.94383728       9.33268535
H        6.81849671      -3.43117765       9.70278445
H        6.88547849      -1.61794047       7.14840592
H        7.49920583      -1.21406158       8.80077151
H        5.21727511      -1.59930393       9.75447436
H        4.57630597      -2.00216744       8.12505852
C       -0.00445707       0.01189536      -1.78238275
H       -0.66409135       0.67374010      -2.43557963
H        0.65740317      -0.63156657      -2.45157240
C       -0.90989263      -0.90692880      -0.91072765
C        0.90977584       0.90977584      -0.90977584
C       -0.00465871       1.77757030       0.00794375
H       -0.66225468       2.44313916      -0.64384735
H        0.64322798       2.43503045       0.67728295
C       -1.78241447       0.00034974      -0.00472694
H       -2.45427497      -0.65498947       0.64260836
H       -2.43311707       0.67328779      -0.65473579
C       -0.91132561       0.90220522       0.91563759
C       -0.01476271      -0.02253852       1.78660255
H       -0.67934791      -0.69751639       2.42135241
H        0.63392994       0.61504881       2.47327442
C        0.01484550      -1.77751727      -0.01636693
H        0.67870853      -2.42144646      -0.68295456
H       -0.62264859      -2.45592969       0.64226336
C        1.78714474       0.01002794       0.00389507
H        2.44202412       0.67113390       0.66197326
H        2.45385902      -0.65136977      -0.64189061
C        0.91606151      -0.90478549       0.90901405
