182
Properties=species:S:1:pos:R:3 pbc="F F F"
C        1.79186925       1.79186925      -1.79186925
C        1.25363108       2.39131449      -2.92860065
C        2.06288035       3.19279814      -3.73744178
C        3.41185006       3.40438553      -3.41178557
C        3.93736280       2.78980945      -2.26514425
C        3.12974948       1.98666063      -1.45641870
C        4.29203022       4.24724994      -4.30367855
S        5.15768886       3.21262314      -5.52232680
C        5.97771524       4.41456708      -6.45730909
N        5.94693004       5.69735749      -6.17470719
N        6.69688147       6.35306471      -7.10992289
C        7.20874466       5.46739329      -7.95029727
C        8.10887841       5.83546956      -9.05138838
C        9.21979340       5.06377930      -9.42362935
C       10.05019164       5.46565727     -10.47858381
C        9.79945522       6.66417278     -11.14136359
C        8.73140233       7.46800202     -10.75690874
C        7.89480782       7.05394524      -9.71917220
N        6.72543464       4.21078369      -7.59677960
C        6.98231324       2.98848003      -8.35288030
C        7.42813919       1.70952876      -7.66582209
C        6.12093363       1.74368075      -8.38174763
H        0.21138509       2.23799960      -3.19536552
H        1.63440562       3.64885803      -4.62903040
H        4.98350195       2.92844661      -1.99960401
H        3.55465842       1.51634535      -0.57343089
H        5.02292806       4.78875836      -3.69173991
H        3.68082893       4.99817579      -4.81736890
H        9.47162974       4.14832445      -8.89394869
H       10.89421501       4.84155868     -10.76379592
H        8.54433557       8.41884044     -11.24955267
H        7.06871617       7.69878816      -9.41815609
H        7.45479222       3.18785784      -9.30980874
H        7.42272438       1.64763235      -6.58146815
H        8.24604380       1.15401856      -8.11397655
H        6.05289964       1.19865022      -9.31950354
H        5.20517959       1.68612348      -7.81222887
C       10.65878731       7.07941380     -12.21966005
C       11.37847793       7.42717816     -13.12273333
Br      12.54215680       7.98948371     -14.58292646
C       -1.79186925      -1.79186925      -1.79186925
C       -3.17159304      -1.80352539      -1.59842780
C       -3.97628822      -2.61503795      -2.40179412
C       -3.40772640      -3.41420451      -3.40609025
C       -2.01614474      -3.39212954      -3.58404222
C       -1.21010659      -2.58248000      -2.78024222
C       -4.27661200      -4.31272286      -4.25362384
S       -4.37855295      -5.97936743      -3.53471842
C       -5.49602909      -6.73986588      -4.61369644
N       -5.98711552      -6.15113441      -5.68074479
N       -6.82910041      -7.03236335      -6.29840532
C       -6.83266323      -8.17090639      -5.62286559
C       -7.59804911      -9.35104053      -6.04664672
C       -7.10952278     -10.66151275      -5.93616652
C       -7.87995263     -11.75164463      -6.36283546
C       -9.12755353     -11.53550069      -6.94193737
C       -9.61043964     -10.24126601      -7.10460744
C       -8.84868027      -9.15963123      -6.65961376
N       -6.02783954      -8.00598843      -4.49916995
C       -5.86405576      -9.00884942      -3.45076838
C       -4.49130200      -9.38856891      -2.92361912
C       -5.48282482      -8.75606185      -2.00747534
H       -3.62815952      -1.19108782      -0.82550288
H       -5.05278552      -2.62381092      -2.23569760
H       -1.55126999      -4.01294909      -4.34733348
H       -0.13363140      -2.58020317      -2.93060010
H       -3.86427372      -4.37140580      -5.26774681
H       -5.27988706      -3.87936242      -4.33712414
H       -6.11911889     -10.86052942      -5.53425457
H       -7.49002015     -12.76069446      -6.24885501
H      -10.57073819     -10.06086619      -7.58112431
H       -9.23195487      -8.14920165      -6.80450390
H       -6.56264388      -9.83314239      -3.55667254
H       -3.61954395      -8.81241137      -3.21986956
H       -4.27334348     -10.44436004      -2.79633541
H       -5.93334572      -9.38963379      -1.24807389
H       -5.30354720      -7.75452649      -1.64545824
C       -9.91408930     -12.65649943      -7.38727243
C      -10.57281301     -13.59533586      -7.76024055
Br     -11.63791354     -15.11335498      -8.36329845
C       -1.79186925       1.79186925       1.79186925
C       -3.15986142       1.87317263       1.54051217
C       -3.96420689       2.68472887       2.34418452
C       -3.40737747       3.41426193       3.40638177
C       -2.02730442       3.32269175       3.64232033
C       -1.22151983       2.51295368       2.83835530
C       -4.27404956       4.31363395       4.25527519
S       -4.27276060       6.01228756       3.60759063
C       -5.40373680       6.77510538       4.67074923
N       -5.96648563       6.16387979       5.68862930
N       -6.79681108       7.05459458       6.30846342
C       -6.72176875       8.21992262       5.68474385
C       -7.45427031       9.41382713       6.12763892
C       -6.90590323      10.70476755       6.09653126
C       -7.64740355      11.80894238       6.53808679
C       -8.92762612      11.62407171       7.05329377
C       -9.47199516      10.34686259       7.13745535
C       -8.73797090       9.25233568       6.67761868
N       -5.87547684       8.06737816       4.59014292
C       -5.62258888       9.10572278       3.59536191
C       -4.21279288       9.44607210       3.14462506
C       -5.18860094       8.89795494       2.15980612
H       -3.60725084       1.31516680       0.72233258
H       -5.03088928       2.74848956       2.13291521
H       -1.57083640       3.88910433       4.45161184
H       -0.15388197       2.45634854       3.03420416
H       -3.90514278       4.31062729       5.28765626
H       -5.29760416       3.92220432       4.27656514
H       -5.89100716      10.87644226       5.74645346
H       -7.21013335      12.80357197       6.48586429
H      -10.45937109      10.18924946       7.56410813
H       -9.17003076       8.25471522       6.76091444
H       -6.28943338       9.95503632       3.70798912
H       -3.38043627       8.81957340       3.45181522
H       -3.94458540      10.49557736       3.07387616
H       -5.57745480       9.58274445       1.41085415
H       -5.03623149       7.90577085       1.76152960
C       -9.68471724      12.75897622       7.51416771
C      -10.31878105      13.70945875       7.90014963
Br     -11.34400861      15.24630860       8.52424976
C        1.79186925      -1.79186925       1.79186925
C        1.21684639      -2.53898360       2.81771624
C        2.02540333      -3.34049177       3.62722518
C        3.41115653      -3.40443980       3.41242484
C        3.97298778      -2.64247772       2.37685101
C        3.16588773      -1.83918866       1.56775241
C        4.28683980      -4.24870258       4.30741632
S        4.94433171      -3.26248545       5.68582164
C        5.79028769      -4.47210948       6.58719424
N        5.90406659      -5.72070503       6.19422310
N        6.62933887      -6.39452359       7.13600661
C        6.98221242      -5.55090774       8.09331505
C        7.81532309      -5.94210207       9.23831120
C        8.81314156      -5.11644468       9.77761580
C        9.58419357      -5.54281426      10.86742489
C        9.39100888      -6.81517186      11.39881085
C        8.43976118      -7.66789701      10.84865490
C        7.65994907      -7.23158968       9.77638651
N        6.41537671      -4.31270060       7.80492061
C        6.49101154      -3.14909917       8.68356286
C        6.87225438      -1.77798802       8.15324764
C        5.51754569      -1.99076886       8.73804744
H        0.14583548      -2.50107555       2.99783919
H        1.56680619      -3.91302907       4.43245880
H        5.04638103      -2.66560816       2.19956337
H        3.61887690      -1.25362173       0.77193604
H        5.11490891      -4.66598485       3.72253258
H        3.70694348      -5.09396964       4.69546050
H        9.02253643      -4.13723149       9.35413496
H       10.33854567      -4.87824404      11.28277990
H        8.30109553      -8.67319706      11.23843609
H        6.92667888      -7.91372217       9.34525937
H        6.89645998      -3.39605189       9.65994694
H        6.95387571      -1.61550561       7.08244357
H        7.59317891      -1.19894658       8.72191343
H        5.31877493      -1.54378388       9.70849459
H        4.65253391      -1.95870309       8.09229493
C       10.19001503      -7.25450661      12.51333952
C       10.85918269      -7.62244947      13.44675727
Br      11.94117018      -8.21738195      14.95601484
C       -0.00445707       0.01189536      -1.78238275
H       -0.66409135       0.67374010      -2.43557963
H        0.65740317      -0.63156657      -2.45157240
C       -0.90989263      -0.90692880      -0.91072765
C        0.90977584       0.90977584      -0.90977584
C       -0.00465871       1.77757030       0.00794375
H       -0.66225468       2.44313916      -0.64384735
H        0.64322798       2.43503045       0.67728295
C       -1.78241447       0.00034974      -0.00472694
H       -2.45427497      -0.65498947       0.64260836
H       -2.43311707       0.67328779      -0.65473579
C       -0.91132561       0.90220522       0.91563759
C       -0.01476271      -0.02253852       1.78660255
H       -0.67934791      -0.69751639       2.42135241
H        0.63392994       0.61504881       2.47327442
C        0.01484550      -1.77751727      -0.01636693
H        0.67870853      -2.42144646      -0.68295456
H       -0.62264859      -2.45592969       0.64226336
C        1.78714474       0.01002794       0.00389507
H        2.44202412       0.67113390       0.66197326
H        2.45385902      -0.65136977      -0.64189061
C        0.91606151      -0.90478549       0.90901405
