133
Properties=species:S:1:pos:R:3 pbc="F F F"
C        0.00000000       0.00000000       0.00000000
C        0.88202989       0.88202989      -0.88202989
C        2.07343964       0.37025909      -1.39766962
C        2.88921180       1.17862317      -2.19181481
C        2.49373903       2.49088447      -2.47395398
C        1.30237391       3.00585010      -1.95507851
C        0.49436520       2.19473279      -1.15486587
S        3.55442116       3.52287761      -3.45372051
O        2.88781080       4.79736183      -3.66651422
O        4.85746065       3.48892393      -2.81699523
C        3.71854710       2.75184063      -5.02517838
C        2.36965627       2.57663490      -5.64901860
O        1.71548557       1.56449878      -5.41473007
N        2.00208478       3.61651615      -6.48475969
C        0.79824981       3.74913989      -7.21110275
C       -0.23700825       2.81159506      -7.18835978
C       -1.40663262       3.02491430      -7.92608308
C       -1.54959077       4.17449087      -8.69914829
C       -0.51828816       5.10767418      -8.73021682
C        0.64907700       4.90305736      -7.99177535
H        2.37655476      -0.65107694      -1.18039470
H        3.82625547       0.77947782      -2.57178874
H        0.99904403       4.03117325      -2.15556992
H       -0.42969010       2.59535353      -0.74516019
H        4.20687625       1.78107480      -4.90452109
H        4.36717143       3.37912449      -5.64391984
H        2.63102690       4.41100636      -6.54580079
H       -0.17510904       1.90169247      -6.59954922
H       -2.20657933       2.28896444      -7.89141100
H       -2.46226244       4.33128672      -9.26763506
H        1.43824647       5.64903309      -8.03153112
C       -0.65604306       6.29626995      -9.53138076
C       -0.77141279       7.29171892     -10.20235556
Br      -0.95795589       8.90127570     -11.28726507
C       -0.88202989      -0.88202989      -0.88202989
C       -0.50177428      -2.19965664      -1.13993744
C       -1.29799763      -3.00377716      -1.95787499
C       -2.47841609      -2.48177294      -2.49838844
C       -2.85854144      -1.16099970      -2.24376137
C       -2.05380670      -0.35911643      -1.43104073
S       -3.46532314      -3.49918531      -3.56651083
O       -4.66423234      -2.76004454      -3.92740998
O       -2.57590540      -3.98122378      -4.60625063
C       -3.97628262      -4.89366149      -2.62562200
C       -4.73565622      -4.44169974      -1.41795381
O       -4.13341616      -4.18091212      -0.38038614
N       -6.10555253      -4.39084840      -1.60695970
C       -7.08730423      -4.00193361      -0.66925462
C       -6.80462940      -3.59516361       0.63684642
C       -7.83540937      -3.21006792       1.50111253
C       -9.15945667      -3.23455181       1.06996010
C       -9.44626540      -3.64551955      -0.22781789
C       -8.42143108      -4.02571030      -1.09676832
H        0.41381369      -2.60425968      -0.71542653
H       -0.98372261      -4.02227210      -2.17152733
H       -3.76538662      -0.74396482      -2.67643576
H       -2.34449217       0.67044532      -1.23677678
H       -3.09773380      -5.47049262      -2.32424573
H       -4.59064581      -5.52988568      -3.26968428
H       -6.45624689      -4.59387334      -2.53771382
H       -5.78940641      -3.55598533       1.01925909
H       -7.59784185      -2.88842584       2.51247158
H       -9.95260410      -2.93259580       1.74854056
H       -8.67259288      -4.33999981      -2.10621799
C      -10.81316862      -3.67888884      -0.67955020
C      -11.95795006      -3.70683561      -1.05787602
Br     -13.80896483      -3.75202318      -1.66959687
C       -0.88202989       0.88202989       0.88202989
C       -2.26782923       0.72095926       0.85257985
C       -3.07769671       1.53565989       1.64629318
C       -2.48732735       2.49627434       2.47497579
C       -1.09957671       2.66105746       2.50266834
C       -0.29518435       1.84825559       1.70052392
S       -3.52616787       3.55207605       3.45277536
O       -2.67747165       4.39874829       4.27546692
O       -4.47275263       4.15624335       2.53438383
C       -4.43939637       2.51575308       4.54041665
C       -3.50091186       1.71088407       5.38351383
O       -3.09056582       0.62779154       4.97635706
N       -3.20564045       2.29493368       6.60278649
C       -2.35493496       1.79196001       7.61159748
C       -1.66025235       0.58360353       7.51909071
C       -0.82354331       0.16237977       8.55844169
C       -0.67869888       0.94201148       9.70333802
C       -1.37396664       2.14288681       9.80274939
C       -2.20615102       2.57127888       8.76647981
H       -2.72395473      -0.02897640       0.21089419
H       -4.15752356       1.41857606       1.60142241
H       -0.63616986       3.41880989       3.13080745
H        0.78412110       1.97900774       1.71593698
H       -5.08339806       1.85316753       3.95590656
H       -5.08272080       3.15294460       5.15455035
H       -3.58682986       3.21845317       6.78255102
H       -1.73729911      -0.05793878       6.64677232
H       -0.28354632      -0.77723104       8.46748082
H       -0.02570290       0.60651350      10.50444293
H       -2.73574413       3.51467361       8.86839294
C       -1.23388962       2.95213452      10.98558352
C       -1.11657512       3.62987947      11.97620710
Br      -0.92688749       4.72573574      13.57796165
C        0.88202989      -0.88202989       0.88202989
C        0.32232983      -1.97632739       1.54271114
C        1.12255555      -2.77560993       2.36148431
C        2.48288919      -2.47753933       2.49814896
C        3.04395036      -1.37957106       1.83978109
C        2.23657712      -0.57914843       1.02823831
S        3.48456961      -3.47680310       3.56964657
O        4.86003170      -3.01478986       3.47686530
O        2.81497716      -3.49193801       4.85646464
C        3.44184932      -5.11661372       2.93710307
C        3.93917085      -5.13036935       1.52576958
O        3.15540198      -4.93890679       0.60040565
N        5.29230587      -5.39749950       1.41355525
C        6.05657531      -5.47347849       0.22843864
C        5.53497778      -5.28099537      -1.05302656
C        6.36373664      -5.35834891      -2.17772079
C        7.72077336      -5.63573779      -2.03246276
C        8.24327761      -5.83493976      -0.75861453
C        7.42233802      -5.75353760       0.36803409
H       -0.73410853      -2.20831965       1.43166139
H        0.67438919      -3.61332930       2.88980354
H        4.09675588      -1.13192480       1.95710652
H        2.66970548       0.27904132       0.52015947
H        2.41726655      -5.49590123       2.97930438
H        4.05944516      -5.74560860       3.58516199
H        5.82260017      -5.49113897       2.27409491
H        4.48522348      -5.05953295      -1.21862379
H        5.94354829      -5.19818491      -3.16793709
H        8.35611710      -5.69267975      -2.91213751
H        7.85636555      -5.91065074       1.35179439
C        9.64430718      -6.12760928      -0.60030880
C       10.81766944      -6.37272000      -0.46772775
Br      12.71489698      -6.76904330      -0.25335540
