133
Properties=species:S:1:pos:R:3 pbc="F F F"
C        0.00000000       0.00000000       0.00000000
C        0.88118171       0.88118171      -0.88118171
C        2.24906283       0.63601922      -0.95840279
C        3.05289171       1.44693622      -1.76497511
C        2.49387226       2.49744784      -2.50607519
C        1.12080030       2.73418720      -2.41488276
C        0.31472545       1.92811492      -1.60290180
N        3.37558827       3.26520774      -3.29448779
C        3.04087306       4.19955833      -4.25921274
O        1.90204330       4.49545023      -4.61142686
C        4.21354261       4.91681851      -4.86055653
S        5.26298896       3.80250679      -5.72655869
O        6.26454799       4.58909621      -6.42281397
O        5.67847999       2.77290365      -4.78681824
C        4.23893463       3.03985029      -6.96048689
C        4.13334111       3.62950558      -8.22426892
C        3.35174994       3.01693942      -9.20527007
C        2.69160773       1.82093443      -8.91968215
C        2.81200844       1.22429002      -7.66384998
C        3.59646871       1.82956549      -6.68008170
H        2.69927110      -0.17966543      -0.39863493
H        4.11892869       1.23584228      -1.81292426
H        0.64353214       3.54834154      -2.95228287
H       -0.75192465       2.13128098      -1.54260515
H        4.35854856       2.99509897      -3.23279487
H        4.79772823       5.40166419      -4.07325544
H        3.86990048       5.68122406      -5.56340529
H        4.65900219       4.55303513      -8.45898335
H        3.26817523       3.47378835     -10.18858064
H        2.30373778       0.28845247      -7.44456231
H        3.69496294       1.34850227      -5.70957740
C        1.88575816       1.19162355      -9.93367145
C        1.21085915       0.66457568     -10.78288748
Br       0.11960453      -0.18761614     -12.15599798
C       -0.88118171      -0.88118171      -0.88118171
C       -1.33949342      -2.10408457      -0.39990685
C       -2.14453983      -2.90912331      -1.21113991
C       -2.50475604      -2.49236612      -2.50027312
C       -2.03355118      -1.26519365      -2.97112543
C       -1.22186964      -0.46027481      -2.16359773
N       -3.32019920      -3.36425514      -3.25082946
C       -3.97067780      -3.08804281      -4.44092352
O       -3.96650950      -2.01105215      -5.03135875
C       -4.69012302      -4.26026204      -5.04053258
S       -5.98872264      -4.81243401      -3.99089779
O       -6.74253475      -5.82074808      -4.71317534
O       -5.40049699      -5.13696201      -2.70074288
C       -7.05685197      -3.41107493      -3.77134491
C       -8.11508831      -3.20891203      -4.66311526
C       -8.97351745      -2.12416497      -4.47627701
C       -8.77373653      -1.25871197      -3.39977581
C       -7.72806214      -1.47165280      -2.50043350
C       -6.86913957      -2.55786812      -2.67910820
H       -1.07865186      -2.43994579       0.60035707
H       -2.49402562      -3.85963099      -0.81403861
H       -2.26679253      -0.90764524      -3.96971878
H       -0.86206316       0.49035287      -2.55025119
H       -3.55668489      -4.24281191      -2.78694561
H       -3.99190106      -5.08826485      -5.19248196
H       -5.12306946      -3.98492998      -6.00653040
H       -8.28674498      -3.88952581      -5.49474989
H       -9.79693063      -1.96504541      -5.16856818
H       -7.57774166      -0.80149575      -1.65751515
H       -6.06629547      -2.72267784      -1.96406930
C       -9.66077691      -0.14035915      -3.20991710
C      -10.40367323       0.79626134      -3.05091042
Br     -11.60487374       2.31069745      -2.79381009
C       -0.88118171       0.88118171       0.88118171
C       -2.24374246       0.61633385       0.98340852
C       -3.04763955       1.42729183       1.78987166
C       -2.49374102       2.49763674       2.50601753
C       -1.12607361       2.75392570       2.38987096
C       -0.32008923       1.94776158       1.57789136
N       -3.37511366       3.26397293       3.29619721
C       -3.04023559       4.21822733       4.24118121
O       -1.90088513       4.53696299       4.57107228
C       -4.21457155       4.92671197       4.84963412
S       -5.23318073       3.81006302       5.74881069
O       -6.23607173       4.59195622       6.44843022
O       -5.64695167       2.75973044       4.83151977
C       -4.17861763       3.08245545       6.97819872
C       -4.06286770       3.69323869       8.23100922
C       -3.25691663       3.10804024       9.20900255
C       -2.58270681       1.91798711       8.93153038
C       -2.71303001       1.30011332       7.68700511
C       -3.52177850       1.87793585       6.70640155
H       -2.68973075      -0.21475426       0.44326410
H       -4.10940600       1.20067097       1.85761825
H       -0.65335056       3.58355038       2.90725561
H        0.74222441       2.16627384       1.49791206
H       -4.35458434       2.97791843       3.25393963
H       -4.81821219       5.39025496       4.06418072
H       -3.87213585       5.70712636       5.53526763
H       -4.59917043       4.61214933       8.45970092
H       -3.16540963       3.58135033      10.18378427
H       -2.19368597       0.36887122       7.47419537
H       -3.62762886       1.38038794       5.74502581
C       -1.75173765       1.31693232       9.94238318
C       -1.05580097       0.81354894      10.78897240
Br       0.06946978      -0.00037942      12.15783557
C        0.88118171      -0.88118171       0.88118171
C        0.97431608      -2.24575128       0.62341748
C        1.78081876      -3.04962337       1.43436092
C        2.50603901      -2.49378817       2.49756811
C        2.39896578      -1.12408175       2.74682273
C        1.58698537      -0.31806474       1.94069207
N        3.29557604      -3.37529100       3.26441677
C        4.24775369      -3.04040128       4.21148916
O        4.58578054      -1.90115906       4.52198079
C        4.85361029      -4.21416134       4.92314601
S        5.74080897      -5.24401510       3.80723036
O        6.43919791      -6.24643752       4.59082274
O        4.81534418      -5.65848673       2.76437097
C        6.97196014      -4.20044357       3.06686809
C        8.22880460      -4.08831900       3.66999200
C        9.20798079      -3.29114642       3.07483222
C        8.92760163      -2.62204123       1.88258144
C        7.67892104      -2.74882466       1.27240274
C        6.69707770      -3.54882109       1.86021711
H        0.42703645      -2.69333215      -0.20212801
H        1.84136692      -4.11300126       1.21332704
H        2.92362732      -0.64964741       3.57088182
H        1.51416243       0.74588373       2.15368279
H        3.24624918      -4.35609008       2.98410314
H        4.06741424      -4.81078908       5.39444454
H        5.54551227      -3.87122895       5.69778862
H        8.45965287      -4.62076068       4.59060713
H       10.18589849      -3.20247102       3.54217472
H        7.46379041      -2.23349908       0.33946308
H        5.73234952      -3.65204987       1.36864321
C        9.93968689      -1.80012419       1.27124208
C       10.78730828      -1.11176867       0.75924536
Br      12.15784040       0.00124399      -0.06861004
