138
Properties=species:S:1:pos:R:3 pbc="F F F"
C        1.79117147       1.79117147      -1.79117147
C        2.54379384       1.21673421      -2.81362702
C        3.35162408       2.02115867      -3.62729895
C        3.40159988       3.40579645      -3.42290168
C        2.64442262       3.96744950      -2.38191630
C        1.84100109       3.16379332      -1.56810880
C        4.22339535       4.33143737      -4.26418659
O        4.28380884       5.52214521      -3.95798589
C        4.94316109       3.82973470      -5.47667827
S        6.60402672       3.39732710      -5.07639355
O        6.58366078       2.50556904      -3.93087232
O        7.24409422       2.96907176      -6.30712295
C        7.38989683       4.91199481      -4.58242825
C        7.46569132       5.24614681      -3.22703705
C        8.08910307       6.43616760      -2.84657361
C        8.64610102       7.26893541      -3.81809484
Br       9.48566065       8.88127384      -3.29936362
C        8.59389724       6.92086452      -5.16860633
C        7.96785959       5.73424997      -5.55535410
H        2.51570097       0.14215528      -2.98232142
H        3.93888919       1.52508258      -4.39430190
H        2.67263110       5.04043302      -2.19571241
H        1.26266907       3.61923442      -0.76805596
H        4.96159480       4.61320239      -6.24119019
H        4.44985070       2.96653562      -5.92682776
H        7.03617477       4.59999287      -2.46442718
H        8.13404169       6.70519039      -1.79407457
H        9.03945684       7.56420722      -5.92350002
H        7.94158071       5.46144275      -6.60812749
C       -1.79117147      -1.79117147      -1.79117147
C       -2.12939358      -3.07548006      -1.36928143
C       -2.94040023      -3.88714487      -2.17253661
C       -3.42115321      -3.41054624      -3.39859856
C       -3.06292144      -2.11747345      -3.81339354
C       -2.25083538      -1.30914093      -3.01292691
C       -4.30881086      -4.21021386      -4.29999458
O       -4.60954600      -3.75215768      -5.40223626
C       -4.84836158      -5.53658060      -3.86463189
S       -3.80790731      -6.84321764      -4.42662242
O       -2.44306670      -6.54724891      -4.02978652
O       -4.42186520      -8.09044530      -4.00797844
C       -3.88954136      -6.79424809      -6.20053045
C       -2.91080722      -6.10519702      -6.92287094
C       -2.97941185      -6.07530751      -8.31712490
C       -4.01002078      -6.74756139      -8.97554911
Br      -4.10184047      -6.70131533     -10.86314231
C       -4.97090941      -7.45791563      -8.25454305
C       -4.90990930      -7.48762503      -6.85992934
H       -1.76134330      -3.45898822      -0.41984615
H       -3.15598988      -4.88900372      -1.81328007
H       -3.41575377      -1.72614483      -4.76687793
H       -1.98583172      -0.31110080      -3.35302693
H       -5.84811211      -5.68101378      -4.28686149
H       -4.95447733      -5.60796208      -2.78077466
H       -2.10309608      -5.58156240      -6.41593635
H       -2.22819465      -5.52588688      -8.87922512
H       -5.76605554      -7.99191107      -8.76919747
H       -5.65388103      -8.05368911      -6.30358081
C       -1.79117147       1.79117147       1.79117147
C       -2.28308839       1.29444373       2.99662295
C       -3.08951383       2.09992961       3.81063826
C       -3.39925876       3.40925950       3.42177975
C       -2.90340611       3.89106538       2.19931693
C       -2.10142926       3.08567633       1.38579762
C       -4.23565339       4.33561671       4.24774920
O       -4.53766181       5.43723840       3.78903973
C       -4.68054255       3.94634700       5.62268451
S       -6.28549192       3.22022697       5.57202848
O       -6.28001772       2.16148292       4.57860149
O       -6.66232635       2.91704410       6.94091849
C       -7.37622828       4.50277885       5.00531277
C       -7.69976195       4.59101386       3.64809936
C       -8.56145980       5.59909170       3.21129277
C       -9.10539428       6.49448938       4.13324762
Br     -10.26839248       7.86050004       3.53740559
C       -8.80324006       6.38848922       5.49163882
C       -7.93865298       5.38516130       5.93364938
H       -2.05169531       0.27846678       3.31001558
H       -3.46974519       1.66050507       4.72802341
H       -3.13714667       4.90253842       1.86909144
H       -1.72783183       3.47865327       0.44347435
H       -4.72044311       4.83595061       6.25959366
H       -3.99050948       3.25015376       6.10255083
H       -7.28157290       3.89441162       2.92461031
H       -8.80071382       5.67890769       2.15368515
H       -9.23771069       7.07876521       6.21068820
H       -7.71692846       5.29903347       6.99518903
C        1.79117147      -1.79117147       1.79117147
C        2.38377473      -2.93358167       1.25679868
C        3.19594611      -3.74399935       2.06013623
C        3.42255129      -3.40719594       3.40055078
C        2.80996019      -2.25782487       3.92600336
C        1.99688187      -1.45125637       3.12476498
C        4.29433965      -4.21100482       4.31367483
O        4.36481247      -3.89726338       5.50186408
C        5.09232384      -5.36486185       3.79238838
S        4.20590602      -6.87408951       3.99775184
O        2.87863126      -6.70826238       3.43320850
O        5.06177301      -7.94304979       3.51546613
C        4.03533781      -7.09709618       5.75188591
C        2.87002342      -6.67207366       6.39677810
C        2.74167098      -6.85515293       7.77502036
C        3.76620162      -7.47619906       8.49073061
Br       3.59047790      -7.71855161      10.35726859
C        4.91727207      -7.92470372       7.84139230
C        5.05308048      -7.74035114       6.46403205
H        2.21473280      -3.20793528       0.21750959
H        3.61516888      -4.63697138       1.60613341
H        2.96232540      -1.97854976       4.96790138
H        1.53257107      -0.56573014       3.55165824
H        6.03506092      -5.43649103       4.34443542
H        5.35565817      -5.24781004       2.73974586
H        2.06634611      -6.18994480       5.84430393
H        1.84292946      -6.51006198       8.28031521
H        5.70925542      -8.41990883       8.39799984
H        5.94659737      -8.10362081       5.96093277
C       -0.00445707       0.01189536      -1.78238275
H       -0.66409135       0.67374010      -2.43557963
H        0.65740317      -0.63156657      -2.45157240
C       -0.90989263      -0.90692880      -0.91072765
C        0.90977584       0.90977584      -0.90977584
C       -0.00465871       1.77757030       0.00794375
H       -0.66225468       2.44313916      -0.64384735
H        0.64322798       2.43503045       0.67728295
C       -1.78241447       0.00034974      -0.00472694
H       -2.45427497      -0.65498947       0.64260836
H       -2.43311707       0.67328779      -0.65473579
C       -0.91132561       0.90220522       0.91563759
C       -0.01476271      -0.02253852       1.78660255
H       -0.67934791      -0.69751639       2.42135241
H        0.63392994       0.61504881       2.47327442
C        0.01484550      -1.77751727      -0.01636693
H        0.67870853      -2.42144646      -0.68295456
H       -0.62264859      -2.45592969       0.64226336
C        1.78714474       0.01002794       0.00389507
H        2.44202412       0.67113390       0.66197326
H        2.45385902      -0.65136977      -0.64189061
C        0.91606151      -0.90478549       0.90901405
