121
Properties=species:S:1:pos:R:3 pbc="F F F"
C        0.00000000       0.00000000       0.00000000
C        0.88198877       0.88198877      -0.88198877
C        0.29472824       1.70972149      -1.83989378
C        1.09890765       2.50484290      -2.65987875
C        2.48868588       2.46962890      -2.50156779
C        3.07793160       1.63119581      -1.54923859
C        2.26876098       0.83946725      -0.73260320
S        3.52459101       3.40742279      -3.60997210
O        4.84313116       2.80139829      -3.56063641
O        2.80704902       3.47052780      -4.87233646
C        3.57550359       5.04258482      -2.94669805
C        4.21851374       5.04784434      -1.59848034
O        3.52959152       4.84151481      -0.59133792
N        5.54063106       5.29914787      -1.39992434
C        6.56898883       5.49486142      -2.32262461
C        7.85949887       5.64478111      -1.82028563
C        8.92605939       5.79621246      -2.70796168
C        8.67192573       5.78994759      -4.07115269
Br      10.07550003       5.96762234      -5.31402797
C        7.36035206       5.64851119      -4.48861931
N        6.30846825       5.51693828      -3.64093873
H       -0.78562308       1.73118402      -1.96453934
H        0.63870858       3.12653345      -3.42338164
H        4.15931999       1.57943302      -1.44187544
H        2.72728224       0.18706389       0.00619406
H        2.54027751       5.38801985      -2.84323181
H        4.03779165       5.71897494      -3.66167631
H        5.79824741       5.27214084      -0.42240287
H        8.05444814       5.63220272      -0.75302201
H        9.93798071       5.90479913      -2.32729842
H        7.09970634       5.62980625      -5.54369621
C       -0.88198877      -0.88198877      -0.88198877
C       -1.74381430      -1.80796561      -0.29256360
C       -2.53929612      -2.62814222      -1.09619095
C       -2.46992844      -2.50198108      -2.48797305
C       -1.59748968      -1.58185763      -3.07901868
C       -0.80558438      -0.76484183      -2.27040522
S       -3.40940358      -3.61251006      -3.52007225
O       -2.77353140      -3.60623655      -4.82539791
O       -3.51670587      -4.85670036      -2.77650704
C       -5.02769713      -2.91470142      -3.62238791
C       -4.98843353      -1.58151645      -4.29488843
O       -4.77469871      -0.56390408      -3.62384146
N       -5.20602502      -1.40729683      -5.62638144
C       -5.39977243      -2.34838632      -6.63831611
C       -5.50988570      -1.87205539      -7.94262452
C       -5.65774288      -2.77997352      -8.99251713
C       -5.68777481      -4.13690342      -8.70834777
Br      -5.86243910      -5.40685567     -10.08785558
C       -5.58469330      -4.52774296      -7.38504630
N       -5.45726214      -3.65969362      -6.34938951
H       -1.79186493      -1.90774873       0.78951338
H       -3.18800587      -3.36721217      -0.63340563
H       -1.51952017      -1.50003898      -4.16106930
H       -0.12677034      -0.05110383      -2.73027789
H       -5.39342901      -2.78036742      -2.59773274
H       -5.70967124      -3.62483926      -4.08393240
H       -5.15134570      -0.43665626      -5.90478916
H       -5.46898708      -0.80998828      -8.16069751
H       -5.73541877      -2.41989478     -10.01476470
H       -5.59549647      -5.57683894      -7.10087339
C       -0.88198877       0.88198877       0.88198877
C       -2.24214399       1.00663577       0.59556375
C       -3.04841634       1.82572521       1.38948774
C       -2.48154739       2.50462220       2.47371298
C       -1.11580146       2.38879258       2.75377196
C       -0.31561513       1.56831299       1.95690330
S       -3.48420224       3.62725359       3.43053005
O       -2.56973653       4.53337388       4.10205544
O       -4.47982526       4.15659088       2.51349713
C       -4.33066051       2.62358238       4.61054357
C       -3.36234577       1.96481650       5.53767614
O       -2.85872748       0.87838645       5.22533032
N       -3.01166553       2.48201520       6.74602254
C       -3.34937053       3.70023118       7.33687315
C       -2.76001392       4.00224738       8.56230431
C       -3.03194458       5.22992874       9.16836022
C       -3.88192689       6.12069188       8.53040724
Br      -4.26574313       7.79990007       9.29150715
C       -4.43645137       5.73969457       7.32133662
N       -4.19746797       4.54419110       6.72468619
H       -2.67922046       0.48200607      -0.25112625
H       -4.10114883       1.94187669       1.14559815
H       -0.66522591       2.93692439       3.57847815
H        0.74584311       1.47988281       2.17411236
H       -4.86930023       1.84669224       4.05553669
H       -5.09831492       3.20790083       5.11222715
H       -2.35385938       1.89618365       7.24274809
H       -2.08260634       3.30824680       9.04881972
H       -2.57051817       5.47967980      10.11988028
H       -5.10455030       6.39738128       6.77127722
C        0.88198877      -0.88198877       0.88198877
C        1.98141970      -0.32567529       1.53724851
C        2.80020286      -1.13254983       2.33087661
C        2.49927384      -2.49206251       2.46854623
C        1.40394909      -3.05204767       1.80236923
C        0.58936346      -2.24027358       1.01119439
S        3.59579702      -3.54604727       3.40014160
O        3.34552114      -4.90510801       2.95453670
O        4.92326049      -2.97251862       3.25413417
C        3.11911757      -3.35641623       5.08925266
C        1.72201993      -3.83969466       5.30312382
O        0.77287675      -3.06616426       5.12340324
N        1.42040752      -5.09883358       5.72046217
C        2.25057602      -6.19945724       5.93644161
C        1.64045798      -7.40339722       6.28071041
C        2.42715827      -8.54231634       6.46075893
C        3.79963678      -8.44522473       6.28816449
Br       4.90633700      -9.95461718       6.49619616
C        4.32894381      -7.21005029       5.95848846
N        3.58253092      -6.08813479       5.79567956
H        2.21624639       0.73037335       1.42422725
H        3.67142823      -0.70077336       2.81642209
H        1.18268948      -4.11412998       1.88380898
H       -0.26072912      -2.67627758       0.49260360
H        3.16037390      -2.28654350       5.32461177
H        3.85529255      -3.82551392       5.73763643
H        0.42506018      -5.24615374       5.82157720
H        0.56436049      -7.47720921       6.39810316
H        1.96082054      -9.48875245       6.72050527
H        5.39611312      -7.07308816       5.80400752
