142
Properties=species:S:1:pos:R:3 pbc="F F F"
C        1.79189280       1.79189280      -1.79189280
C        1.20463227       2.61962551      -2.74979780
C        2.00881167       3.41474692      -3.56978278
C        3.39858990       3.37953293      -3.41147182
C        3.98783562       2.54109983      -2.45914261
C        3.17866500       1.74937127      -1.64250722
S        4.43449503       4.31732681      -4.51987612
O        5.75303519       3.71130231      -4.47054043
O        3.71695304       4.38043183      -5.78224048
C        4.48540762       5.95248884      -3.85660208
C        5.12841776       5.95774836      -2.50838436
O        4.43949555       5.75141883      -1.50124194
N        6.45053508       6.20905190      -2.30982837
C        7.47889286       6.40476545      -3.23252863
C        8.76940289       6.55468514      -2.73018965
C        9.83596341       6.70611649      -3.61786570
C        9.58182975       6.69985161      -4.98105671
Br      10.98540406       6.87752637      -6.22393200
C        8.27025609       6.55841521      -5.39852333
N        7.21837227       6.42684231      -4.55084276
H        0.12428095       2.64108804      -2.87444336
H        1.54861261       4.03643748      -4.33328566
H        5.06922401       2.48933705      -2.35177946
H        3.63718626       1.09696791      -0.90370996
H        3.45018153       6.29792388      -3.75313583
H        4.94769567       6.62887897      -4.57158033
H        6.70815143       6.18204486      -1.33230689
H        8.96435216       6.54210674      -1.66292603
H       10.84788473       6.81470315      -3.23720244
H        8.00961037       6.53971027      -6.45360023
C       -1.79189280      -1.79189280      -1.79189280
C       -1.39207206      -3.09627556      -2.08570795
C       -2.18747018      -3.90002856      -2.90584263
C       -3.38612525      -3.38843122      -3.41503818
C       -3.78110446      -2.07700523      -3.12996838
C       -2.98206605      -1.27909899      -2.30937846
S       -4.35603545      -4.37484555      -4.54081697
O       -5.20315785      -3.45410594      -5.27761414
O       -3.40927124      -5.21349839      -5.25685572
C       -5.33792001      -5.43244989      -3.52412864
C       -6.27845906      -4.63420690      -2.68188452
O       -5.90282821      -4.20617573      -1.58315237
N       -7.56238852      -4.36506161      -3.04196522
C       -8.24336486      -4.64563598      -4.22718610
C       -9.54426436      -4.16250167      -4.34751166
C      -10.24754675      -4.37866719      -5.53373167
C       -9.62894155      -5.06814170      -6.56565483
Br     -10.52258362      -5.36842002      -8.19585877
C       -8.33923728      -5.52603333      -6.36192403
N       -7.64551757      -5.34041014      -5.21012962
H       -0.45713717      -3.48971976      -1.69295542
H       -1.85811059      -4.90538493      -3.15484022
H       -4.69803630      -1.66564827      -3.54665594
H       -3.28876339      -0.25965901      -2.08944173
H       -4.65549933      -5.98113559      -2.86460632
H       -5.82299582      -6.18955073      -4.13560842
H       -8.05500889      -3.82193916      -2.34555515
H      -10.01725649      -3.60919331      -3.54293514
H      -11.25963272      -3.99830828      -5.64184933
H       -7.80040720      -6.06689342      -7.13562025
C       -1.79189280       1.79189280       1.79189280
C       -3.15931951       1.88548835       1.52924772
C       -3.96606878       2.70433700       2.32293559
C       -3.39203982       3.41436809       3.38318674
C       -2.01931253       3.32956990       3.63919564
C       -1.21867578       2.50916106       2.84270665
S       -4.39784984       4.53607962       4.33776849
O       -3.48844094       5.47188231       4.97455467
O       -5.42045158       5.02899983       3.43017393
C       -5.20265923       3.53945295       5.55238635
C       -4.20469074       2.91683129       6.47302845
O       -3.68633476       1.83426913       6.17155244
N       -3.84135039       3.46353876       7.66452620
C       -4.19114629       4.68628060       8.23876004
C       -3.58477870       5.02268923       9.44680975
C       -3.86871956       6.25641838      10.03480766
C       -4.74740820       7.11870623       9.39662365
Br      -5.14892116       8.80466574      10.13327552
C       -5.31713839       6.70431153       8.20574471
N       -5.06657192       5.50231025       7.62717516
H       -3.60209519       1.33664864       0.70106852
H       -5.02522234       2.79602354       2.09708986
H       -1.56390477       3.90173614       4.44469961
H       -0.15183059       2.44483929       3.04119425
H       -5.73666210       2.74211641       5.02246273
H       -5.97179873       4.11874986       6.05760638
H       -3.16325213       2.89976480       8.15948627
H       -2.88520867       4.35095768       9.93321859
H       -3.39437742       6.53294033      10.97247258
H       -6.00790115       7.33870152       7.65631820
C        1.79189280      -1.79189280       1.79189280
C        2.89393017      -1.23654331       2.44358209
C        3.71268470      -2.04347206       3.23718462
C        3.40912709      -3.40203272       3.37843484
C        2.31116442      -3.96108624       2.71582741
C        1.49662324      -3.14926173       1.92465852
S        4.50538600      -4.45637277       4.30993919
O        4.25122377      -5.81584658       3.86780757
O        5.83376307      -3.88602533       4.15983694
C        4.03276153      -4.26207746       5.99965954
C        2.63509134      -4.74187875       6.21758039
O        1.68723021      -3.96669096       6.03823515
N        2.33166989      -5.99946252       6.63828294
C        3.15993090      -7.10140727       6.85484878
C        2.54796642      -8.30328403       7.20302723
C        3.33259944      -9.44350763       7.38383853
C        4.70490822      -9.34974939       7.20808047
Br       5.80880245     -10.86107479       7.41698518
C        5.23616079      -8.11643253       6.87460131
N        4.49181557      -6.99326227       6.71097950
H        3.13078558      -0.18124957       2.32777720
H        4.58588327      -1.61253200       3.71992048
H        2.08779489      -5.02251088       2.80003475
H        0.64447697      -3.58454604       1.40884113
H        4.07682893      -3.19179198       6.23262033
H        4.76932211      -4.73136540       6.64746746
H        1.33622816      -6.14441669       6.74185834
H        1.47196831      -8.37452110       7.32289553
H        2.86478665     -10.38837392       7.64662976
H        6.30328672      -7.98210620       6.71752796
C       -0.00445707       0.01189536      -1.78238275
H       -0.66409135       0.67374010      -2.43557963
H        0.65740317      -0.63156657      -2.45157240
C       -0.90989263      -0.90692880      -0.91072765
C        0.90977584       0.90977584      -0.90977584
C       -0.00465871       1.77757030       0.00794375
H       -0.66225468       2.44313916      -0.64384735
H        0.64322798       2.43503045       0.67728295
C       -1.78241447       0.00034974      -0.00472694
H       -2.45427497      -0.65498947       0.64260836
H       -2.43311707       0.67328779      -0.65473579
C       -0.91132561       0.90220522       0.91563759
C       -0.01476271      -0.02253852       1.78660255
H       -0.67934791      -0.69751639       2.42135241
H        0.63392994       0.61504881       2.47327442
C        0.01484550      -1.77751727      -0.01636693
H        0.67870853      -2.42144646      -0.68295456
H       -0.62264859      -2.45592969       0.64226336
C        1.78714474       0.01002794       0.00389507
H        2.44202412       0.67113390       0.66197326
H        2.45385902      -0.65136977      -0.64189061
C        0.91606151      -0.90478549       0.90901405
