154
Properties=species:S:1:pos:R:3 pbc="F F F"
C        1.79184951       1.79184951      -1.79184951
C        1.24117207       2.90717761      -2.42456379
C        2.04472856       3.71453229      -3.23220902
C        3.40034378       3.40546109      -3.38181978
C        3.94853628       2.27627789      -2.76478144
C        3.13895339       1.46987215      -1.96250468
S        4.42443662       4.41149143      -4.42693220
O        5.49855637       3.56415674      -4.91519692
O        3.56517157       5.09867721      -5.37492189
C        5.14838165       5.62513848      -3.38179900
C        4.08267672       6.42798675      -2.70119602
O        3.73835152       6.14320954      -1.55779747
N        3.59046532       7.46902180      -3.46518116
C        2.63789437       8.44956032      -3.09223559
C        2.13638684       8.57307716      -1.79329814
C        1.19642141       9.56236552      -1.48128073
C        0.74759828      10.44322907      -2.46173707
C        1.24191372      10.34185478      -3.75948426
C        2.18195253       9.35415495      -4.07082151
H        0.19001043       3.15388205      -2.29642920
H        1.60596809       4.57717814      -3.72933010
H        4.99416556       2.01111493      -2.90675252
H        3.56390112       0.59284915      -1.48033473
H        5.78796697       6.26795542      -3.99386115
H        5.77586139       5.12490473      -2.63887198
H        3.84872443       7.49720979      -4.45064257
H        2.45863676       7.91881368      -0.98928044
H        0.81674747       9.64157263      -0.46481742
H        0.01594201      11.20831197      -2.21364102
H        0.88997864      11.03466536      -4.51974571
C        2.66559203       9.29767813      -5.42599795
C        3.07064011       9.25037879      -6.56095823
Br       3.72556860       9.17389977      -8.39609300
C       -1.79184951      -1.79184951      -1.79184951
C       -1.34372364      -3.05781775      -2.17137209
C       -2.14732436      -3.86573613      -2.97840938
C       -3.40367897      -3.40241451      -3.38153117
C       -3.84504395      -2.12571825      -3.01883341
C       -3.03496841      -1.32039946      -2.21596235
S       -4.42204636      -4.41217238      -4.42864150
O       -5.27171688      -3.51446741      -5.19172573
O       -3.56136848      -5.35143794      -5.12596424
C       -5.46466502      -5.33484279      -3.35581131
C       -4.64239340      -6.15743588      -2.41203022
O       -4.41641000      -5.74479559      -1.27815296
N       -4.22178553      -7.36357144      -2.93931131
C       -3.49635869      -8.39323639      -2.29009519
C       -3.20252306      -8.37666899      -0.92357009
C       -2.48250490      -9.42282171      -0.33474105
C       -2.04945701     -10.50068986      -1.10241755
C       -2.33992822     -10.53970284      -2.46362171
C       -3.06036243      -9.49498585      -3.05158070
H       -0.37229846      -3.42205429      -1.84596893
H       -1.78710899      -4.84787170      -3.27749565
H       -4.80624974      -1.74637594      -3.35940733
H       -3.37736124      -0.32845451      -1.93126925
H       -6.10851346      -5.97322957      -3.96804051
H       -6.10033171      -4.64247003      -2.79683635
H       -4.34449302      -7.51200419      -3.94007957
H       -3.52362999      -7.56559329      -0.27750760
H       -2.26229605      -9.39105229       0.73021082
H       -1.48893056     -11.30931718      -0.63964726
H       -2.00185988     -11.38559115      -3.05693869
C       -3.33967630      -9.58845544      -4.46113638
C       -3.57360166      -9.66673622      -5.64163925
Br      -3.95183919      -9.79330961      -7.55041256
C       -1.79184951       1.79184951       1.79184951
C       -2.90735785       1.24124562       2.42431001
C       -3.71595668       2.04530980       3.23020339
C       -3.38564608       3.39225802       3.40972055
C       -2.27974406       3.94995070       2.75990085
C       -1.47785404       3.14221049       1.95126569
S       -4.42194447       4.42870211       4.41221366
O       -4.27100879       5.78699608       3.91990516
O       -5.74312680       3.82814719       4.46749668
C       -3.74259167       4.38018517       6.03254229
C       -3.70311504       2.97075915       6.53798532
O       -2.66594978       2.31941271       6.45399605
N       -4.89374999       2.53959383       7.09132446
C       -5.16491664       1.29755493       7.71721870
C       -4.17838605       0.34307883       7.98129726
C       -4.50396367      -0.86772197       8.60382594
C       -5.81848517      -1.13958561       8.97366485
C       -6.81389528      -0.19771375       8.72707123
C       -6.48827006       1.01249279       8.10616612
H       -3.15521406       0.19055398       2.29455364
H       -4.58900104       1.61079257       3.71268272
H       -2.03895917       5.00552775       2.86754609
H       -0.61651300       3.57355745       1.44701455
H       -4.35874370       5.00888954       6.68215029
H       -2.73307539       4.79984588       6.00671683
H       -5.71835321       3.12284002       6.95538356
H       -3.13713512       0.50741374       7.72218202
H       -3.72229197      -1.59868814       8.79953369
H       -6.06542504      -2.08267655       9.45514650
H       -7.83777657      -0.41455134       9.02116448
C       -7.55418638       1.95413868       7.88094305
C       -8.44689130       2.74276711       7.69231873
Br      -9.89031964       4.01791258       7.38732915
C        1.79184951      -1.79184951       1.79184951
C        3.03177901      -1.31824061       2.22289385
C        3.84054268      -2.12266859       3.02825860
C        3.38792124      -3.38949502       3.41020839
C        2.15450752      -3.87321879       2.96186930
C        1.35242341      -3.06630891       2.15259789
S        4.41997898      -4.42968634       4.41319492
O        4.05899758      -5.80462566       4.11428679
O        5.79610397      -3.99654444       4.24612226
C        3.95804210      -4.11724808       6.08002894
C        4.13860019      -2.66664381       6.40661549
O        3.17775856      -1.90415880       6.35744118
N        5.42946608      -2.32895794       6.76624426
C        5.91278830      -1.06884844       7.19805354
C        5.07898557       0.02478104       7.44855761
C        5.61206874       1.24691880       7.87491771
C        6.98448061       1.39170914       8.05979294
C        7.83062096       0.31133631       7.82396811
C        7.29775966      -0.91002954       7.39913978
H        3.37646626      -0.32768337       1.93617206
H        4.80979917      -1.74984901       3.35282816
H        1.81348723      -4.87192874       3.22661704
H        0.39233662      -3.43987998       1.80486839
H        4.57698282      -4.74206547       6.73073525
H        2.91294581      -4.40771907       6.21897322
H        6.16080292      -3.02212915       6.61364472
H        4.00176527      -0.03586135       7.32910427
H        4.94691206       2.08699713       8.06322258
H        7.39271425       2.34408406       8.38926480
H        8.90090981       0.42979328       7.97327318
C        8.21611074      -1.99662024       7.17653713
C        8.98522977      -2.90663996       6.99010741
Br      10.22883019      -4.37806487       6.68866631
C       -0.00445707       0.01189536      -1.78238275
H       -0.66409135       0.67374010      -2.43557963
H        0.65740317      -0.63156657      -2.45157240
C       -0.90989263      -0.90692880      -0.91072765
C        0.90977584       0.90977584      -0.90977584
C       -0.00465871       1.77757030       0.00794375
H       -0.66225468       2.44313916      -0.64384735
H        0.64322798       2.43503045       0.67728295
C       -1.78241447       0.00034974      -0.00472694
H       -2.45427497      -0.65498947       0.64260836
H       -2.43311707       0.67328779      -0.65473579
C       -0.91132561       0.90220522       0.91563759
C       -0.01476271      -0.02253852       1.78660255
H       -0.67934791      -0.69751639       2.42135241
H        0.63392994       0.61504881       2.47327442
C        0.01484550      -1.77751727      -0.01636693
H        0.67870853      -2.42144646      -0.68295456
H       -0.62264859      -2.45592969       0.64226336
C        1.78714474       0.01002794       0.00389507
H        2.44202412       0.67113390       0.66197326
H        2.45385902      -0.65136977      -0.64189061
C        0.91606151      -0.90478549       0.90901405
