125
Properties=species:S:1:pos:R:3 pbc="F F F"
C        0.00000000       0.00000000       0.00000000
C        0.88194549       0.88194549      -0.88194549
C        0.33126805       1.99727359      -1.51465977
C        1.13482454       2.80462826      -2.32230500
C        2.49043976       2.49555707      -2.47191575
C        3.03863226       1.36637386      -1.85487742
C        2.22904936       0.55996813      -1.05260065
S        3.51453259       3.50158740      -3.51702817
O        4.58865234       2.65425271      -4.00529290
O        2.65526754       4.18877318      -4.46501787
C        4.23847763       4.71523445      -2.47189497
C        3.17277270       5.51808273      -1.79129200
O        2.82844750       5.23330552      -0.64789345
N        2.68056130       6.55911778      -2.55527714
C        1.72799035       7.53965629      -2.18233156
C        1.22648281       7.66317314      -0.88339411
C        0.28651739       8.65246149      -0.57137670
C       -0.16230574       9.53332504      -1.55183304
C        0.33200969       9.43195076      -2.84958024
C        1.27204851       8.44425092      -3.16091748
Br       1.91135787       8.36959581      -4.95228687
H       -0.71989359       2.24397803      -1.38652517
H        0.69606407       3.66727411      -2.81942608
H        4.08426153       1.10121091      -1.99684850
H        2.65399710      -0.31705487      -0.57043070
H        4.87806295       5.35805139      -3.08395713
H        4.86595737       4.21500071      -1.72896796
H        2.93882040       6.58730577      -3.54073854
H        1.54873273       7.00890966      -0.07937641
H       -0.09315655       8.73166860       0.44508661
H       -0.89396202      10.29840795      -1.30373699
H       -0.01992539      10.12476134      -3.60984169
C       -0.88194549      -0.88194549      -0.88194549
C       -0.47452464      -2.18126358      -1.18741318
C       -1.27817072      -2.98932567      -1.99426141
C       -2.49465594      -2.49153454      -2.47172210
C       -2.89414299      -1.18253768      -2.18320287
C       -2.08397282      -0.37752822      -1.38011711
S       -3.51142721      -3.50257816      -3.51914280
O       -4.28757595      -2.60431953      -4.35630247
O       -2.66435283      -4.50729368      -4.13741208
C       -4.63823030      -4.33203037      -2.45534638
C       -3.89375478      -5.14617709      -1.44221556
O       -3.69793002      -4.69378310      -0.31793335
N       -3.50490738      -6.39113723      -1.89891159
C       -2.85378205      -7.42088310      -1.17531305
C       -2.61756818      -7.35641426       0.20093238
C       -1.97001533      -8.40505564       0.86471539
C       -1.55291679      -9.53313334       0.16319779
C       -1.78698907      -9.61991301      -1.20663860
C       -2.43505741      -8.57264865      -1.86951085
Br      -2.73022608      -8.76265721      -3.74035728
H        0.46522874      -2.57153566      -0.80430269
H       -0.94936089      -3.99807083      -2.23533253
H       -3.82238715      -0.77829051      -2.58164329
H       -2.39395133       0.63961831      -1.15303990
H       -5.28317497      -4.96903070      -3.06786580
H       -5.26576830      -3.58937441      -1.95478332
H       -3.59160954      -6.57830717      -2.89694800
H       -2.92957572      -6.50473655       0.79729346
H       -1.79386249      -8.33561983       1.93605687
H       -1.04873299     -10.34351573       0.68406579
H       -1.46182071     -10.50472579      -1.74813114
C       -0.88194549       0.88194549       0.88194549
C       -2.22763156       0.55712660       1.05844325
C       -3.03644774       1.36211604       1.86319402
C       -2.48134681       2.47650707       2.50005870
C       -1.13789696       2.81461804       2.30736854
C       -0.33532985       2.00879879       1.49748951
S       -3.50766793       3.52049435       3.50498588
O       -2.91908349       4.84831036       3.48080410
O       -4.88584883       3.33872770       3.08448206
C       -3.36387218       2.91351058       5.14822429
C       -3.79080197       1.47922972       5.21211574
O       -2.94783060       0.58761319       5.17420267
N       -5.15633739       1.30518045       5.33343837
C       -5.86996984       0.09091673       5.48909163
C       -5.24417670      -1.14526503       5.67413839
C       -6.00040142      -2.31374183       5.82369599
C       -7.39148422      -2.26231147       5.79367959
C       -8.03348876      -1.03913711       5.61918904
C       -7.27783022       0.12841070       5.47097600
Br      -8.22146250       1.76611794       5.24566012
H       -2.65455285      -0.31733824       0.57339500
H       -4.08676092       1.10735732       1.98864602
H       -0.70995063       3.70064348       2.77172683
H        0.70980422       2.26891906       1.34825808
H       -3.98706146       3.53385161       5.79915840
H       -2.32439677       3.01228129       5.47324797
H       -5.75230039       2.12012461       5.19443971
H       -4.16363346      -1.24096864       5.71435399
H       -5.49492199      -3.26668202       5.96518547
H       -7.97332332      -3.17363236       5.90849196
H       -9.11991199      -1.00514770       5.59991335
C        0.88194549      -0.88194549       0.88194549
C        2.18900937      -0.48570413       1.16848791
C        2.99782433      -1.29043682       1.97349665
C        2.47984474      -2.47778406       2.50028377
C        1.17691873      -2.88603316       2.19693164
C        0.37459321      -2.07973673       1.38728821
S        3.50869792      -3.52025985       3.50419040
O        3.01329178      -4.87784502       3.35706115
O        4.89527952      -3.22433224       3.18944684
C        3.22138463      -3.03523690       5.16898552
C        3.54617496      -1.58447399       5.35149848
O        2.64929409      -0.74712196       5.31323041
N        4.88659875      -1.33340913       5.57494834
C        5.50587690      -0.08985634       5.85424496
C        4.78809055       1.08928978       6.07424930
C        5.45323825       2.29033850       6.34745584
C        6.84376172       2.32864944       6.40774006
C        7.57615322       1.16276652       6.20015398
C        6.91142233      -0.03741183       5.92838275
Br       7.97519440      -1.59368213       5.66436403
H        2.58591348       0.44447724       0.76917337
H        4.01868380      -0.97911156       2.18496890
H        0.78107173      -3.82640128       2.57484794
H       -0.63925323      -2.39447825       1.15214790
H        3.84263734      -3.65745302       5.81998111
H        2.17250499      -3.22080268       5.41661835
H        5.54349948      -2.09807308       5.42529215
H        3.70317487       1.11391426       6.04775820
H        4.87701439       3.19793781       6.51434887
H        7.35471677       3.26499628       6.61846243
H        8.66146271       1.19855826       6.25177319
