149
Properties=species:S:1:pos:R:3 pbc="F F F"
C        0.00000000       0.00000000       0.00000000
C        0.88299266       0.88299266      -0.88299266
C        2.25220864       0.94671871      -0.63439264
C        3.05428520       1.76330162      -1.42663574
C        2.48237993       2.50989478      -2.45969719
C        1.10623394       2.43942826      -2.72124858
C        0.30734267       1.62004257      -1.92160455
N        0.61902072       3.23304291      -3.78337951
C       -0.67857395       3.29924529      -4.26219481
O       -1.60520881       2.56840638      -3.91348618
C       -0.88870915       4.26136376      -5.39494713
S       -0.36432350       5.87719643      -4.93124853
O       -1.16321454       6.31339496      -3.80138654
O        1.08353920       5.86417012      -4.82376024
C       -0.83986781       6.89059473      -6.33640400
C       -2.05388871       7.58080472      -6.18982744
C       -2.51001647       8.41200352      -7.19985313
C       -1.75328008       8.57413116      -8.35918601
Br      -2.49487629       9.75379065      -9.66473745
C       -0.51780605       7.89764637      -8.54143058
C        0.26680386       8.06166910      -9.71085949
C        1.47569666       7.39649038      -9.89632658
C        1.93243956       6.53558358      -8.91808437
C        1.18381612       6.34937275      -7.75403998
C       -0.04545448       7.02402886      -7.51439168
H        2.69826199       0.37130642       0.17226927
H        4.12348144       1.82261929      -1.23933570
H        3.13086776       3.14474514      -3.05932644
H       -0.76461411       1.55111720      -2.07354531
H        1.30376355       3.87146462      -4.18723305
H       -1.95759159       4.31299478      -5.63086849
H       -0.33146995       3.93043022      -6.27463928
H       -2.65558916       7.48419981      -5.28696380
H       -3.45365360       8.93758856      -7.07010960
H       -0.05161785       8.72733873     -10.51070405
H        2.05311474       7.55647623     -10.80342833
H        2.87603045       6.01161497      -9.05027309
H        1.60958299       5.65939417      -7.03242616
C       -0.88299266      -0.88299266      -0.88299266
C       -0.41469988      -1.28757770      -2.13104242
C       -1.22437054      -2.07712130      -2.94273073
C       -2.49492514      -2.45523770      -2.50180905
C       -2.96561412      -2.06028882      -1.24100783
C       -2.14924069      -1.26685923      -0.43288987
N       -4.26371626      -2.48778805      -0.88393882
C       -4.92551110      -2.27009296       0.31273792
O       -4.42907233      -1.76846116       1.32084976
C       -6.31471253      -2.83432403       0.38143482
S       -7.29601210      -2.20820480      -0.93990457
O       -7.37714134      -0.76551921      -0.80890641
O       -6.80524338      -2.78984795      -2.17637823
C       -8.93257974      -2.86256115      -0.59199003
C       -9.80287681      -1.97506548       0.06119884
C      -11.09913683      -2.36216434       0.35946099
C      -11.54437655      -3.63222593      -0.00343460
Br     -13.35309490      -4.03120899       0.46065208
C      -10.69562620      -4.55535634      -0.67028836
C      -11.13882171      -5.84614890      -1.05436183
C      -10.30891023      -6.75635620      -1.70324718
C       -9.00228508      -6.40494401      -1.97887842
C       -8.53232601      -5.14184192      -1.61306093
C       -9.35123363      -4.17412123      -0.96761121
H        0.57093161      -0.98984133      -2.47838943
H       -0.86982618      -2.39592283      -3.91968742
H       -3.10948116      -3.06692881      -3.15852938
H       -2.48026772      -0.92007689       0.54029622
H       -4.78020663      -2.95145083      -1.63080376
H       -6.78434635      -2.52334415       1.32141882
H       -6.27805509      -3.92513050       0.32958604
H       -9.48460560      -0.97145036       0.34048151
H      -11.75919627      -1.66234973       0.86750143
H      -12.15883946      -6.17021416      -0.85737131
H      -10.68934435      -7.73348046      -1.99019448
H       -8.34471838      -7.10630129      -2.48689884
H       -7.49615428      -4.93990804      -1.86534100
C       -0.88299266       0.88299266       0.88299266
C       -2.24505196       0.98070588       0.60756215
C       -3.04662147       1.79748560       1.40011551
C       -2.48133314       2.51035133       2.46028743
C       -1.11275926       2.40548688       2.74866464
C       -0.31427546       1.58612567       1.94858867
N       -0.63176793       3.16653948       3.83713573
C        0.65652938       3.19545331       4.34394222
O        1.57501893       2.45259122       3.99911145
C        0.86255457       4.12932169       5.50083462
S        0.38155509       5.76508882       5.06058773
O        1.21293945       6.20758565       3.95692076
O       -1.06367843       5.78482712       4.92296401
C        0.84818738       6.73898977       6.49632853
C        2.07902794       7.40632027       6.38945112
C        2.53082273       8.20667261       7.42599030
C        1.75331227       8.36074326       8.57260610
Br       2.49141570       9.49727876       9.91778875
C        0.50055912       7.70684770       8.71498232
C       -0.30498653       7.86319198       9.87115394
C       -1.53100446       7.21997034      10.01753881
C       -1.98469816       6.38927941       9.01212994
C       -1.21569520       6.21140451       7.86012915
C        0.03203021       6.86478877       7.66020751
H       -2.68578252       0.43161533      -0.22009869
H       -4.11017581       1.88319804       1.19206257
H       -3.12907214       3.14621688       3.05965033
H        0.75258558       1.49148188       2.12115210
H       -1.31154300       3.81078352       4.24013469
H        1.92706152       4.15351185       5.75982135
H        0.28016774       3.79211459       6.36165270
H        2.69751401       7.31571612       5.49737233
H        3.48764178       8.71480519       7.32688116
H        0.01017619       8.50533339      10.69126773
H       -2.12399891       7.37332809      10.91569230
H       -2.94148918       5.88271105       9.11371827
H       -1.64030848       5.54561292       7.11548192
C        0.88299266      -0.88299266       0.88299266
C        0.42158832      -1.27373108       2.13800059
C        1.23143704      -2.06325978       2.94952575
C        2.49529977      -2.45518498       2.50148715
C        2.95891944      -2.07420395       1.23378739
C        2.14242853      -1.28070654       0.42585472
N        4.25061032      -2.51505817       0.86977465
C        4.90441866      -2.31235206      -0.33390457
O        4.40387732      -1.81483159      -1.34202517
C        6.28844000      -2.88835018      -0.40918844
S        7.28540840      -2.25960353       0.89910953
O        7.37706248      -0.81872143       0.75578305
O        6.80001327      -2.82729950       2.14415679
C        8.91379423      -2.92996796       0.54336873
C        9.78587467      -2.05482702      -0.12395823
C       11.07652444      -2.45479610      -0.42948036
C       11.51447025      -3.72546560      -0.05989876
Br      13.31610643      -4.14280106      -0.53525568
C       10.66375950      -4.63630369       0.62120770
C       11.09966621      -5.92751611       1.01215013
C       10.26775139      -6.82572889       1.67503333
C        8.96626714      -6.46154203       1.95829834
C        8.50352401      -5.19765484       1.58605001
C        9.32492559      -4.24181568       0.92622480
H       -0.55877355      -0.96524024       2.49083246
H        0.88226723      -2.37131965       3.93184955
H        3.11022031      -3.06653750       3.15818154
H        2.46833790      -0.94444690      -0.55273640
H        4.76939103      -2.97687346       1.61619671
H        6.75292840      -2.58874656      -1.35540328
H        6.24344090      -3.97837218      -0.34821353
H        9.47342558      -1.05094324      -0.40879437
H       11.73804865      -1.76445499      -0.94845907
H       12.11541837      -6.26140461       0.80960195
H       10.64263426      -7.80356544       1.96681961
H        8.30722295      -7.15344605       2.47724951
H        7.47108548      -4.98531471       1.84500314
