170
Properties=species:S:1:pos:R:3 pbc="F F F"
C        1.79289668       1.79289668      -1.79289668
C        3.16211267       1.85662273      -1.54429667
C        3.96418923       2.67320565      -2.33653977
C        3.39228395       3.41979881      -3.36960122
C        2.01613796       3.34933229      -3.63115260
C        1.21724670       2.52994659      -2.83150857
N        1.52892475       4.14294693      -4.69328353
C        0.23133007       4.20914931      -5.17209883
O       -0.69530479       3.47831040      -4.82339020
C        0.02119488       5.17126778      -6.30485115
S        0.54558052       6.78710046      -5.84115256
O       -0.25331052       7.22329899      -4.71129056
O        1.99344322       6.77407415      -5.73366426
C        0.07003621       7.80049875      -7.24630802
C       -1.14398468       8.49070874      -7.09973146
C       -1.60011245       9.32190755      -8.10975715
C       -0.84337606       9.48403519      -9.26909004
Br      -1.58497226      10.66369467     -10.57464147
C        0.39209797       8.80755040      -9.45133461
C        1.17670788       8.97157312     -10.62076352
C        2.38560069       8.30639440     -10.80623060
C        2.84234358       7.44548761      -9.82798839
C        2.09372014       7.25927678      -8.66394400
C        0.86444955       7.93393288      -8.42429571
H        3.60816602       1.28121045      -0.73763476
H        5.03338547       2.73252331      -2.14923972
H        4.04077179       4.05464917      -3.96923047
H        0.14528991       2.46102123      -2.98344933
H        2.21366757       4.78136864      -5.09713708
H       -1.04768757       5.22289880      -6.54077252
H        0.57843408       4.84033424      -7.18454330
H       -1.74568514       8.39410383      -6.19686783
H       -2.54374957       9.84749258      -7.98001363
H        0.85828617       9.63724275     -11.42060808
H        2.96301876       8.46638025     -11.71333235
H        3.78593448       6.92151899      -9.96017711
H        2.51948701       6.56929819      -7.94233019
C       -1.79289668      -1.79289668      -1.79289668
C       -1.29630230      -2.25837434      -3.00835542
C       -2.10517566      -3.04801619      -3.82074279
C       -3.40315572      -3.36544040      -3.41308785
C       -3.90293583      -2.90904265      -2.18464437
C       -3.08710334      -2.11588232      -1.37571621
N       -5.22728940      -3.27785586      -1.86000996
C       -5.92210143      -2.99414289      -0.69633390
O       -5.44331130      -2.47403639       0.31095187
C       -7.33232583      -3.50675576      -0.65823222
S       -8.24371332      -2.89494491      -2.03517530
O       -8.27719797      -1.44651844      -1.95756262
O       -7.73147007      -3.53762283      -3.23208873
C       -9.91398049      -3.47886147      -1.72400103
C      -10.77389399      -2.53855459      -1.13400695
C      -12.09289859      -2.86920663      -0.86944703
C      -12.57080067      -4.13525420      -1.20369429
Br     -14.40782723      -4.45392241      -0.79161424
C      -11.73321750      -5.11089337      -1.80687211
C      -12.20908850      -6.39848196      -2.16147406
C      -11.39048002      -7.35990861      -2.74783706
C      -10.06320121      -7.06444215      -2.98817622
C       -9.56096417      -5.80610146      -2.64987530
C      -10.36638555      -4.78774159      -2.06855099
H       -0.28905130      -2.00791697      -3.33004295
H       -1.72853779      -3.41406169      -4.77254902
H       -4.01613847      -3.97865806      -4.06985489
H       -3.43911144      -1.72284725      -0.42780177
H       -5.73384113      -3.74990619      -2.60842597
H       -7.82290178      -3.14584561       0.25276364
H       -7.33330635      -4.59933766      -0.67066761
H      -10.42950957      -1.53721169      -0.87856526
H      -12.74455871      -2.12891545      -0.41028247
H      -13.24639216      -6.67946713      -1.99027771
H      -11.79572497      -8.33290398      -3.01410243
H       -9.41408709      -7.80618644      -3.44735705
H       -8.51001087      -5.64965382      -2.87145071
C       -1.79289668       1.79289668       1.79289668
C       -2.74098367       2.62300672       1.19904167
C       -3.53349171       3.43975931       2.00068362
C       -3.37206963       3.42137963       3.38823471
C       -2.42717924       2.57828195       3.99116166
C       -1.63430303       1.76323052       3.18116831
N       -2.33371727       2.63183016       5.39960778
C       -1.52029362       1.87045503       6.22182957
O       -0.82859683       0.91995915       5.85783983
C       -1.63204542       2.17870289       7.68656550
S       -1.30933174       3.88482533       7.97967646
O        0.04486245       4.17735671       7.54878477
O       -2.41660155       4.64975613       7.43482395
C       -1.33230424       4.01304405       9.77149470
C       -0.07044529       3.98900331      10.38700693
C        0.03658184       4.10481756      11.76331653
C       -1.11212161       4.26013787      12.53748968
Br      -0.81930025       4.41616519      14.41789845
C       -2.40512993       4.29500998      11.95084306
C       -3.58071243       4.46297361      12.72535848
C       -4.85057606       4.49226566      12.15538398
C       -4.98365713       4.34307409      10.78908836
C       -3.84655164       4.17411552       9.99627377
C       -2.52966755       4.15888674      10.53412385
H       -2.86425446       2.64314326       0.11961351
H       -4.27434944       4.09348910       1.54730996
H       -3.99978501       4.07421695       3.99064947
H       -0.87612196       1.11144364       3.60219487
H       -2.88901928       3.36724270       5.83591130
H       -0.88169784       1.59870616       8.23557975
H       -2.63187635       1.92470880       8.04672647
H        0.84329869       3.88543039       9.80315483
H        1.02209845       4.08234717      12.22350792
H       -3.52786379       4.58256024      13.80571297
H       -5.72727094       4.63277830      12.78268213
H       -5.96988467       4.36605024      10.33169567
H       -4.03294689       4.06564538       8.93252313
C        1.79289668      -1.79289668       1.79289668
C        1.85455255      -1.54596943       3.16251009
C        2.67112285      -2.33819399       3.96461781
C        3.41976970      -3.36956605       3.39234821
C        3.35139883      -3.62944440       2.01577961
C        2.53201221      -2.82982659       1.21686306
N        4.14699600      -4.68993423       1.52822498
C        4.21547161      -5.16700192       0.23010469
O        3.48537267      -4.81804186      -0.69701871
C        5.17930831      -6.29825237       0.01975312
S        6.79387353      -5.83315911       0.54680090
O        7.22964608      -4.70171761      -0.25008466
O        6.77885730      -5.72754228       1.99478205
C        7.80967844      -7.23640669       0.07075786
C        8.50125264      -7.08739231      -1.14218942
C        9.33432739      -8.09576872      -1.59854385
C        9.49697170      -9.25586162      -0.84308416
Br      10.67925031     -10.55895184      -1.58483827
C        8.81914092      -9.44055388       0.39128817
C        8.98365759     -10.61077608       1.17461085
C        8.31717100     -10.79864234       2.38241235
C        7.45442824      -9.82208815       2.83930319
C        7.26768436      -8.65732495       2.09193162
C        7.94360499      -8.41523934       0.86383381
H        1.27753729      -0.74061633       3.60885760
H        2.72883268      -2.15218794       5.03412789
H        4.05455751      -3.96921283       4.04088109
H        2.46465294      -2.98048217       0.14462536
H        4.78505798      -5.09384749       2.21326782
H        5.23260887      -6.53273813      -1.04936325
H        4.84878927      -7.17908023       0.57544212
H        8.40426113      -6.18388299      -1.74285760
H        9.86095256      -7.96414428      -2.54134020
H        9.65075804     -11.40935986       0.85601910
H        8.47757984     -11.70627757       2.95887396
H        6.92942267      -9.95615565       3.78205226
H        6.57623788      -7.93714038       2.51773713
C       -0.00445707       0.01189536      -1.78238275
H       -0.66409135       0.67374010      -2.43557963
H        0.65740317      -0.63156657      -2.45157240
C       -0.90989263      -0.90692880      -0.91072765
C        0.90977584       0.90977584      -0.90977584
C       -0.00465871       1.77757030       0.00794375
H       -0.66225468       2.44313916      -0.64384735
H        0.64322798       2.43503045       0.67728295
C       -1.78241447       0.00034974      -0.00472694
H       -2.45427497      -0.65498947       0.64260836
H       -2.43311707       0.67328779      -0.65473579
C       -0.91132561       0.90220522       0.91563759
C       -0.01476271      -0.02253852       1.78660255
H       -0.67934791      -0.69751639       2.42135241
H        0.63392994       0.61504881       2.47327442
C        0.01484550      -1.77751727      -0.01636693
H        0.67870853      -2.42144646      -0.68295456
H       -0.62264859      -2.45592969       0.64226336
C        1.78714474       0.01002794       0.00389507
H        2.44202412       0.67113390       0.66197326
H        2.45385902      -0.65136977      -0.64189061
C        0.91606151      -0.90478549       0.90901405
