121
Properties=species:S:1:pos:R:3 pbc="F F F"
C        0.00000000       0.00000000       0.00000000
C        0.88171110       0.88171110      -0.88171110
C        2.16275191       1.22466141      -0.45528409
C        2.96865433       2.03181695      -1.26158730
C        2.49616780       2.50441538      -2.49589357
C        3.37216267       3.36690674      -3.37227844
S        4.39899635       2.35709586      -4.47782191
C        5.24378550       3.60780024      -5.33241843
N        5.11604953       4.89899685      -5.10962770
N        5.95186908       5.53836525      -6.00081417
C        6.53503076       4.59755837      -6.71437624
O        6.13729582       3.33986647      -6.33402372
C        7.51067449       4.67144001      -7.79719386
C        8.41954114       3.60660711      -7.97002075
C        9.38231780       3.62569320      -8.98285564
C        9.45671360       4.71094061      -9.84716537
C        8.56860512       5.77445248      -9.69913866
C        7.60090921       5.75967459      -8.68279593
Br       6.42428511       7.25500507      -8.63153090
C        1.20645989       2.14202270      -2.91405948
C        0.40002825       1.33519457      -2.10781408
H        2.54377171       0.86877441       0.49804477
H        3.97025123       2.28840268      -0.92135349
H        4.01229962       3.99460815      -2.74125662
H        2.74356322       4.04245331      -3.96424264
H        8.39108803       2.74475564      -7.30350646
H       10.07269340       2.79240419      -9.09270547
H       10.20244291       4.72997072     -10.63790512
H        8.63352283       6.61477782     -10.38763663
H        0.82190623       2.48497054      -3.87252751
H       -0.59734339       1.06575866      -2.44579692
C       -0.88171110      -0.88171110      -0.88171110
C       -0.66315635      -0.92266560      -2.25687545
C       -1.47031595      -1.72857698      -3.06316565
C       -2.50328658      -2.49367485      -2.49951532
C       -3.36760268      -3.37369966      -3.37004551
S       -2.64089675      -5.02577182      -3.56724556
C       -3.84529289      -5.76828901      -4.57042227
N       -4.92329172      -5.16970486      -5.03167750
N       -5.60892482      -6.10770019      -5.77442348
C       -4.90833064      -7.22137265      -5.71726208
O       -3.76388745      -7.07374796      -4.97355060
C       -5.13626011      -8.53723165      -6.30581661
C       -4.02345697      -9.34015581      -6.63255622
C       -4.17911284     -10.60454742      -7.20720638
C       -5.45278363     -11.09507706      -7.46695888
C       -6.56860015     -10.32248363      -7.15111248
C       -6.41667136      -9.05188936      -6.57481900
Br      -8.02809946      -8.13166734      -6.15105428
C       -2.70389265      -2.44735205      -1.11129736
C       -1.89718745      -1.64119191      -0.30465754
H        0.13106340      -0.33562565      -2.70993909
H       -1.28660234      -1.75777093      -4.13563413
H       -3.49244913      -2.90327931      -4.35243595
H       -4.36618155      -3.45851842      -2.92555921
H       -3.01149118      -8.98017460      -6.44768435
H       -3.30390508     -11.20234529      -7.45155268
H       -5.57954512     -12.07873157      -7.91204206
H       -7.56046557     -10.72207822      -7.35339349
H       -3.48977784      -3.04102741      -0.64859903
H       -2.06759285      -1.61521168       0.76859235
C       -0.88171110       0.88171110       0.88171110
C       -1.75595167       1.79302440       0.29372134
C       -2.56167231       2.59992538       1.10046089
C       -2.49384816       2.50352158       2.49910701
C       -3.37361815       3.36749217       3.37023753
S       -4.97750006       2.57544417       3.68096990
C       -5.71711396       3.77590369       4.69098651
N       -5.17183504       4.92618008       5.02665895
N       -6.08174341       5.57372954       5.83557555
C       -7.12427601       4.77667551       5.94601385
O       -6.96408056       3.61518739       5.23191806
C       -8.38331536       4.92756215       6.66843085
C       -9.53806728       4.29180880       6.16629292
C      -10.77346348       4.40814926       6.80925390
C      -10.88120778       5.16279429       7.97081751
C       -9.75469974       5.79873144       8.48876507
C       -8.51245182       5.68523797       7.84568993
Br      -7.05268177       6.56508289       8.69305642
C       -1.61398945       1.57392082       3.07463179
C       -0.80773608       0.76708921       2.26821161
H       -1.82008860       1.88174747      -0.78733473
H       -3.24567579       3.30408016       0.63025145
H       -3.52677914       4.33786414       2.88352111
H       -2.86575049       3.56243651       4.32207217
H       -9.48720559       3.69898391       5.25316064
H      -11.64890850       3.90940843       6.39948613
H      -11.83936348       5.25498147       8.47597379
H       -9.85200664       6.38071935       9.40321129
H       -1.55218866       1.47103373       4.15618189
H       -0.13004333       0.05382551       2.73034334
C        0.88171110      -0.88171110       0.88171110
C        0.32018342      -1.56376629       1.95874770
C        1.12705958      -2.36948370       2.76551530
C        2.50027250      -2.49342420       2.50278005
C        3.36950020      -3.37388017       3.36796748
S        3.39142327      -5.08397405       2.75851681
C        4.45666941      -5.80594448       3.92139028
N        4.99723410      -5.18110661       4.94633337
N        5.77392295      -6.10786588       5.60925966
C        5.66171262      -7.23976111       4.94549164
O        4.82711932      -7.12222092       3.86184577
C        6.24963888      -8.55582809       5.17384139
C        5.54191614      -9.70118900       4.75306386
C        6.04981294     -10.98767789       4.95337581
C        7.27889923     -11.15733021       5.57859013
C        7.99900897     -10.04180553       6.00138175
C        7.49214481      -8.74822817       5.80300673
Br       8.60603591      -7.31899791       6.38578726
C        3.04780815      -1.80631137       1.40842255
C        2.24131611      -1.00010231       0.60161849
H       -0.74071989      -1.47789288       2.17732835
H        0.67656665      -2.90282161       3.60061914
H        2.99733070      -3.35185806       4.39897563
H        4.39002248      -2.97373901       3.38649768
H        4.57190872      -9.60111021       4.26633120
H        5.48246334     -11.85417042       4.62116930
H        7.67945678     -12.15572398       5.73513799
H        8.96363635     -10.18904159       6.48325934
H        4.10711172      -1.89616038       1.17613218
H        2.68196263      -0.47297888      -0.24072933
