129
Properties=species:S:1:pos:R:3 pbc="F F F"
C        0.00000000       0.00000000       0.00000000
C        0.88171110       0.88171110      -0.88171110
C        2.16275191       1.22466141      -0.45528409
C        2.96865433       2.03181695      -1.26158730
C        2.49616780       2.50441538      -2.49589357
C        3.37216267       3.36690674      -3.37227844
S        4.39899635       2.35709586      -4.47782191
C        5.24378550       3.60780024      -5.33241843
N        5.11604953       4.89899685      -5.10962770
N        5.95186908       5.53836525      -6.00081417
C        6.53503076       4.59755837      -6.71437624
O        6.13729582       3.33986647      -6.33402372
C        7.51067449       4.67144001      -7.79719386
C        8.41954114       3.60660711      -7.97002075
C        9.38231780       3.62569320      -8.98285564
C        9.45671360       4.71094061      -9.84716537
C        8.56860512       5.77445248      -9.69913866
C        7.60090921       5.75967459      -8.68279593
C        1.20645989       2.14202270      -2.91405948
C        0.40002825       1.33519457      -2.10781408
H        2.54377171       0.86877441       0.49804477
H        3.97025123       2.28840268      -0.92135349
H        4.01229962       3.99460815      -2.74125662
H        2.74356322       4.04245331      -3.96424264
H        8.39108803       2.74475564      -7.30350646
H       10.07269340       2.79240419      -9.09270547
H       10.20244291       4.72997072     -10.63790512
H        8.63352283       6.61477782     -10.38763663
H        0.82190623       2.48497054      -3.87252751
H       -0.59734339       1.06575866      -2.44579692
C        6.71076385       6.89092924      -8.64401266
C        5.96526711       7.83835502      -8.61153167
Br       4.75986194       9.37026237      -8.55901266
C       -0.88171110      -0.88171110      -0.88171110
C       -2.14077016      -0.43060668      -1.27132057
C       -2.94732586      -1.23764327      -2.07708946
C       -2.50143377      -2.50180531      -2.49323766
C       -3.36882641      -3.36853304      -3.37398840
S       -3.09164173      -3.01014364      -5.13212876
C       -4.18786894      -4.14701261      -5.84912261
N       -4.98199030      -4.95912851      -5.18355526
N       -5.67617242      -5.69130826      -6.12356781
C       -5.25984216      -5.28280857      -7.30431464
O       -4.31675641      -4.29022772      -7.20420188
C       -5.63410689      -5.69049883      -8.65470264
C       -5.54882609      -4.74726387      -9.70007904
C       -5.90286953      -5.07671531     -11.01128180
C       -6.34939290      -6.35878738     -11.30663930
C       -6.44023686      -7.30976413     -10.29219527
C       -6.08659558      -6.98277883      -8.97400530
C       -1.22681190      -2.93690730      -2.09882286
C       -0.42006968      -2.13031323      -1.29265399
H       -2.50222134       0.54469055      -0.95697056
H       -3.92675195      -0.87251980      -2.38073566
H       -4.42299661      -3.20231824      -3.12284954
H       -3.15347116      -4.42441845      -3.17236956
H       -5.20919640      -3.73141275      -9.49874099
H       -5.82986581      -4.32957101     -11.79836623
H       -6.62421595      -6.62087266     -12.32523013
H       -6.78475023      -8.31214516     -10.53904189
H       -0.85304732      -3.90748751      -2.41886945
H        0.56369604      -2.48357051      -0.99433771
C       -6.18225758      -8.05069455      -8.01275362
C       -6.26237450      -8.94507397      -7.20770533
Br      -6.39191679     -10.39120984      -5.90601034
C       -0.88171110       0.88171110       0.88171110
C       -0.47581823       2.17853266       1.18834652
C       -1.28209486       2.98445361       1.99551012
C       -2.49571997       2.49635104       2.50440573
C       -3.37238910       3.37204714       3.36691162
S       -4.52079666       4.35339959       2.35971788
C       -5.36683855       5.20671639       3.61044922
N       -5.11420260       5.11151439       4.89895709
N       -6.00950200       5.94194057       5.53960592
C       -6.75510574       6.48956367       4.60229596
O       -6.39285943       6.07295855       3.34536803
C       -7.85686944       7.44354632       4.67889260
C       -8.07160399       8.32544800       3.59911701
C       -9.10429404       9.26686446       3.61970814
C       -9.94695305       9.34637245       4.72149407
C       -9.75748192       8.48466872       5.80004562
C       -8.72108902       7.53850182       5.78378888
C       -2.89357852       1.19062197       2.17834157
C       -2.08734139       0.38417788       1.37151763
H        0.46138341       2.57180280       0.80408195
H       -0.95816238       3.99828406       2.22356096
H       -2.74220562       4.03869214       3.96726663
H       -3.93632937       2.74579963       4.06813017
H       -7.42293369       8.29250241       2.72391403
H       -9.24650151       9.93668293       2.77461862
H      -10.75297955      10.07551699       4.74182221
H      -10.42936398       8.55313612       6.65343718
H       -3.83611351       0.79343291       2.54985786
H       -2.40938551      -0.62565832       1.13048499
C       -8.63934104       6.67391868       6.93244603
C       -8.57087710       5.94983030       7.89444640
Br      -8.46017670       4.77904063       9.44991964
C        0.88171110      -0.88171110       0.88171110
C        0.31993422      -1.56480228       1.95796090
C        1.12680972      -2.37051962       2.76472924
C        2.50026658      -2.49342579       2.50278438
C        3.36950394      -3.37387920       3.36796471
S        3.39289402      -5.08357302       2.75744710
C        4.45786129      -5.80560534       3.92053754
N        4.99738259      -5.18107434       4.94621715
N        5.77423829      -6.10776159       5.60904862
C        5.66316360      -7.23930743       4.94449434
O        4.82918133      -7.12160941       3.86039528
C        6.25177777      -8.55514666       5.17238394
C        5.54504583      -9.70068834       4.75043483
C        6.05362958     -10.98698235       4.95025471
C        7.28242746     -11.15625311       5.57613901
C        8.00156400     -10.04054109       6.00009117
C        7.49400717      -8.74715918       5.80221336
C        3.04805919      -1.80527485       1.40920803
C        2.24156752      -0.99906559       0.60240379
H       -0.74116116      -1.47973784       2.17592466
H        0.67612642      -2.90467036       3.59921061
H        2.99666889      -3.35274455       4.39875095
H        4.38976098      -2.97310479       3.38739340
H        4.57528319      -9.60091490       4.26315205
H        5.48703833     -11.85362304       4.61714168
H        7.68351743     -12.15449229       5.73230903
H        8.96597950     -10.18747211       6.48248568
H        4.10756601      -1.89430724       1.17753103
H        2.68241293      -0.47113098      -0.23933173
C        8.33573045      -7.66565760       6.24431770
C        9.04067369      -6.75990002       6.61458009
Br      10.18050729      -5.29536662       7.21326305
