142
Properties=species:S:1:pos:R:3 pbc="F F F"
C        1.79161512       1.79161512      -1.79161512
C        3.07265593       2.13456543      -1.36518812
C        3.87855836       2.94172098      -2.17149132
C        3.40607183       3.41431940      -3.40579759
C        4.28206670       4.27681077      -4.28218246
S        5.30890038       3.26699989      -5.38772594
C        6.15368952       4.51770426      -6.24232245
N        6.02595355       5.80890087      -6.01953173
N        6.86177310       6.44826927      -6.91071820
C        7.44493479       5.50746239      -7.62428026
O        7.04719985       4.24977049      -7.24392774
C        8.42057852       5.58134403      -8.70709789
C        9.32944517       4.51651114      -8.87992477
C       10.29222183       4.53559723      -9.89275966
C       10.36661763       5.62084463     -10.75706939
C        9.47850914       6.68435650     -10.60904268
C        8.51081323       6.66957861      -9.59269995
Br       7.33418913       8.16490910      -9.54143492
C        2.11636391       3.05192672      -3.82396350
C        1.30993228       2.24509860      -3.01771810
H        3.45367573       1.77867844      -0.41185925
H        4.88015525       3.19830670      -1.83125752
H        4.92220365       4.90451217      -3.65116064
H        3.65346725       4.95235733      -4.87414667
H        9.30099206       3.65465967      -8.21341048
H       10.98259742       3.70230821     -10.00260950
H       11.11234693       5.63987474     -11.54780914
H        9.54342685       7.52468185     -11.29754066
H        1.73181025       3.39487456      -4.78243154
H        0.31256063       1.97566268      -3.35570094
C       -1.79161512      -1.79161512      -1.79161512
C       -1.22151009      -2.51239509      -2.83850430
C       -2.02836092      -3.31811054      -3.64529919
C       -3.40995281      -3.40339244      -3.41284357
C       -4.27954563      -4.28374484      -4.27776946
S       -4.35692605      -5.97769111      -3.62900904
C       -5.41161809      -6.70220492      -4.79989322
N       -5.91275861      -6.08968180      -5.85194574
N       -6.69573164      -7.01361874      -6.51141019
C       -6.62641780      -8.13153819      -5.81872146
O       -5.81493073      -8.00759946      -4.71836789
C       -7.24031407      -9.43854085      -6.03016552
C       -6.57043920     -10.58975811      -5.56568376
C       -7.10429835     -11.86840521      -5.74787515
C       -8.32208096     -12.02412608      -6.39832461
C       -9.00500644     -10.90248558      -6.86441630
C       -8.47196326      -9.61677636      -6.68435216
Br      -9.53713947      -8.17620484      -7.32718884
C       -3.96635902      -2.67746967      -2.34842544
C       -3.15988112      -1.87125294      -1.54161491
H       -0.15400463      -2.45675793      -3.03345086
H       -1.57133398      -3.88182682      -4.45655868
H       -3.88283117      -4.29528890      -5.29975639
H       -5.28942670      -3.86029673      -4.33024781
H       -5.61000912     -10.50081608      -5.05823701
H       -6.56592573     -12.73974476      -5.38184464
H       -8.74275756     -13.01631010      -6.54096315
H       -9.96130834     -11.03856778      -7.36577323
H       -5.03268345      -2.73678788      -2.13964502
H       -3.60738698      -1.31380469      -0.72273259
C       -1.79161512       1.79161512       1.79161512
C       -3.10604097       2.05410232       1.41226619
C       -3.91198551       2.86127444       2.21851071
C       -3.40648326       3.41428771       3.40541785
C       -4.28180722       4.27682811       4.28242459
S       -5.20653504       3.27537462       5.48171654
C       -6.07049873       4.52564604       6.31757146
N       -6.01575476       5.80907545       6.02955594
N       -6.83952212       6.45155999       6.92967846
C       -7.34298306       5.52046410       7.71323029
O       -6.90286579       4.26553455       7.37249774
C       -8.27008216       5.60154312       8.83739515
C       -9.11746045       4.50553212       9.10288851
C      -10.03229916       4.52914764      10.15913191
C      -10.11914310       5.65032991      10.97505863
C       -9.29126900       6.74526468      10.73537465
C       -8.37189211       6.72600498       9.67519470
Br      -7.27256413       8.26977747       9.49819155
C       -2.08285057       3.13240186       3.77700171
C       -1.27639118       2.32558362       2.97077418
H       -3.51296625       1.63534368       0.49590349
H       -4.93944107       3.05464486       1.91563354
H       -4.97996519       4.84309414       3.65481712
H       -3.65997694       5.00847688       4.81151743
H       -9.07813641       3.61469159       8.47623421
H      -10.67577465       3.67119417      10.34054631
H      -10.82765924       5.67316044      11.79921114
H       -9.36492149       7.61400850      11.38671936
H       -1.67153670       3.53866172       4.69891793
H       -0.25263391       2.11908804       3.27220231
C        1.79161512      -1.79161512       1.79161512
C        1.22801459      -2.48242857       2.86196631
C        2.03488512      -3.28814543       3.66874011
C        3.41012638      -3.40334188       3.41272056
C        4.27943591      -4.28377584       4.27784817
S        4.31378949      -5.99043288       3.65940383
C        5.37667217      -6.71293709       4.82410698
N        5.90839665      -6.09073219       5.85525731
N        6.68649819      -7.01687662       6.51738576
C        6.58390907      -8.14577609       5.84699228
O        5.75449356      -8.02687873       4.75952579
C        7.17766261      -9.45989243       6.07146540
C        6.47835329     -10.60674023       5.64078755
C        6.99207060     -11.89155606       5.83695206
C        8.21869467     -12.05799785       6.46783912
C        8.93054002     -10.94093011       6.90043820
C        8.41780693      -9.64903090       6.70625396
Br       9.52088470      -8.21702312       7.30262533
C        3.95980061      -2.70745266       2.32500087
C        3.15331175      -1.90124192       1.51819531
H        0.16551399      -2.40339400       3.07530543
H        1.58280949      -3.82835473       4.49855525
H        3.90165518      -4.26927432       5.30694697
H        5.29768255      -3.87829787       4.30399082
H        5.51043483     -10.50923016       5.14939722
H        6.43116095     -12.75926948       5.49708470
H        8.62376327     -13.05506494       6.62120261
H        9.89335760     -11.08559876       7.38669300
H        5.02079604      -2.79039770       2.09792262
H        3.59561327      -1.36726062       0.68105037
C       -0.00445707       0.01189536      -1.78238275
H       -0.66409135       0.67374010      -2.43557963
H        0.65740317      -0.63156657      -2.45157240
C       -0.90989263      -0.90692880      -0.91072765
C        0.90977584       0.90977584      -0.90977584
C       -0.00465871       1.77757030       0.00794375
H       -0.66225468       2.44313916      -0.64384735
H        0.64322798       2.43503045       0.67728295
C       -1.78241447       0.00034974      -0.00472694
H       -2.45427497      -0.65498947       0.64260836
H       -2.43311707       0.67328779      -0.65473579
C       -0.91132561       0.90220522       0.91563759
C       -0.01476271      -0.02253852       1.78660255
H       -0.67934791      -0.69751639       2.42135241
H        0.63392994       0.61504881       2.47327442
C        0.01484550      -1.77751727      -0.01636693
H        0.67870853      -2.42144646      -0.68295456
H       -0.62264859      -2.45592969       0.64226336
C        1.78714474       0.01002794       0.00389507
H        2.44202412       0.67113390       0.66197326
H        2.45385902      -0.65136977      -0.64189061
C        0.91606151      -0.90478549       0.90901405
