142
Properties=species:S:1:pos:R:3 pbc="F F F"
C        1.79172766       1.79172766      -1.79172766
C        2.70072920       2.66844118      -1.20378359
C        3.51013620       3.47167252      -2.01051354
C        3.41924750       3.39810163      -3.40909656
C        2.49058289       2.51705577      -3.98454851
C        1.68083447       1.71374237      -3.17821239
C        4.29495641       4.26492862      -4.28088489
S        3.49110067       5.85074599      -4.66335795
C        4.71029178       6.60402415      -5.63560447
N        5.84597314       6.01574041      -5.94607786
N        6.51433204       6.87316535      -6.76376072
N        5.81521512       7.97539209      -6.96713035
N        4.66135218       7.85565563      -6.24657413
C        3.72139819       8.93099925      -6.25360998
C        3.97370876      10.03691951      -7.09255463
C        3.09269189      11.12217427      -7.14479758
C        1.94923586      11.11837898      -6.35594879
Br       0.75460893      12.58000852      -6.41996948
C        1.68482527      10.04128839      -5.51563513
C        2.56685961       8.95206532      -5.46136416
H        2.78766020       2.73390525      -0.12246237
H        4.21513042       4.15424595      -1.53995245
H        2.39368115       2.44940647      -5.06646000
H        0.97039413       1.03322499      -3.64029592
H        4.52369456       3.73217655      -5.21129284
H        5.24873465       4.44788495      -3.77228549
H        4.85863393      10.07760386      -7.72802874
H        3.31204751      11.95933251      -7.80315681
H        0.79427893      10.03682832      -4.89062795
H        2.30379712       8.16283495      -4.76973184
C       -1.79172766      -1.79172766      -1.79172766
C       -2.21948890      -3.03146976      -1.32199531
C       -3.02950761      -3.83587654      -2.12693811
C       -3.42102039      -3.40236339      -3.40306192
C       -2.97224916      -2.15524454      -3.86469347
C       -2.16206681      -1.35055644      -3.06016598
C       -4.29758605      -4.27089787      -4.27228600
S       -3.30617808      -5.36566920      -5.33335733
C       -4.55682472      -6.21845181      -6.17464387
N       -5.83781879      -5.97704697      -5.99292565
N       -6.50945751      -6.78227351      -6.85952709
N       -5.67165091      -7.51236798      -7.57371867
N       -4.41046688      -7.19940289      -7.15371217
C       -3.29487155      -7.87350101      -7.73763486
C       -3.53339156      -8.76482034      -8.80497100
C       -2.48404662      -9.45635078      -9.41926634
C       -1.18216294      -9.26918899      -8.97221170
Br       0.24054698     -10.19943833      -9.79569558
C       -0.92519839      -8.40059627      -7.91595414
C       -1.97576579      -7.70625930      -7.29826400
H       -1.92995046      -3.37992906      -0.33414830
H       -3.35587622      -4.80328481      -1.75016780
H       -3.25339322      -1.80138875      -4.85476566
H       -1.82745634      -0.38528847      -3.43117023
H       -4.93879869      -3.63478298      -4.89358228
H       -4.95915019      -4.87208849      -3.63766641
H       -4.54000096      -8.93815410      -9.18611148
H       -2.69813366     -10.13471936     -10.24168380
H        0.09184706      -8.25601575      -7.55756651
H       -1.69932770      -7.06542568      -6.47161052
C       -1.79172766       1.79172766       1.79172766
C       -1.60256356       1.79853259       3.17185782
C       -2.40627586       2.60834670       3.97769970
C       -3.39903917       3.42004107       3.40736545
C       -3.58305544       3.39288280       2.01624894
C       -2.77968958       2.58308998       1.21000967
C       -4.26650716       4.29629255       4.27797020
S       -5.77460225       3.42664991       4.80395245
C       -6.53176107       4.64912575       5.76903358
N       -6.02162035       5.85095013       5.93522093
N       -6.91285520       6.54792693       6.69047598
N       -7.96242241       5.80423712       6.99107803
N       -7.75136180       4.57307419       6.43914595
C       -8.72262677       3.54502433       6.63835632
C       -9.91812263       3.87315487       7.31190540
C      -10.90853611       2.91186098       7.53926665
C      -10.71553971       1.60825842       7.09976551
Br     -12.04753236       0.30390223       7.40315234
C       -9.54063454       1.26105410       6.44006015
C       -8.54600399       2.22315491       6.21113020
H       -0.83473526       1.18013538       3.62915718
H       -2.25066759       2.60387420       5.05478704
H       -4.35326941       4.00517825       1.55109997
H       -2.93224268       2.57779003       0.13388234
H       -4.53639566       5.20441413       3.72635416
H       -3.69665507       4.61286705       5.15938298
H      -10.10849962       4.88478520       7.67098172
H      -11.82091776       3.19488836       8.05873070
H       -9.38174506       0.23979322       6.10019691
H       -7.65331276       1.87251947       5.71053168
C        1.79172766      -1.79172766       1.79172766
C        1.46671468      -1.97194855       3.13429074
C        2.27089582      -2.78193156       3.93949487
C        3.40055269      -3.42073394       3.40515906
C        3.71930296      -3.21967931       2.05320491
C        2.91550666      -2.40963803       1.24764454
C        4.26868842      -4.29723652       4.27484498
S        5.60939554      -3.34473497       5.05107409
C        6.39773065      -4.58518618       5.96700357
N        6.01120466      -5.84322245       5.95336430
N        6.89436870      -6.52719069       6.72969872
N        7.81852563      -5.72008429       7.21912764
N        7.52756041      -4.46238058       6.77364094
C        8.35267313      -3.37067539       7.18265890
C        9.50356585      -3.65025926       7.94935779
C       10.35225052      -2.62577573       8.38163749
C       10.05973165      -1.30722482       8.05660716
Br      11.20006531       0.08225029       8.63677191
C        8.92566847      -1.00826350       7.30781682
C        8.07306277      -2.03379319       6.87343313
H        0.59243253      -1.48897545       3.56261984
H        2.00826359      -2.91371082       4.98735441
H        4.59604990      -3.69550165       1.61799607
H        3.17392817      -2.26861219       0.20137469
H        4.69260992      -5.10614427       3.66840976
H        3.65213557      -4.76615667       5.05061284
H        9.76890172      -4.67142316       8.22394166
H       11.23369582      -2.87198900       8.96885201
H        8.68845200       0.02343673       7.05671993
H        7.20161975      -1.72087327       6.31387088
C       -0.00445707       0.01189536      -1.78238275
H       -0.66409135       0.67374010      -2.43557963
H        0.65740317      -0.63156657      -2.45157240
C       -0.90989263      -0.90692880      -0.91072765
C        0.90977584       0.90977584      -0.90977584
C       -0.00465871       1.77757030       0.00794375
H       -0.66225468       2.44313916      -0.64384735
H        0.64322798       2.43503045       0.67728295
C       -1.78241447       0.00034974      -0.00472694
H       -2.45427497      -0.65498947       0.64260836
H       -2.43311707       0.67328779      -0.65473579
C       -0.91132561       0.90220522       0.91563759
C       -0.01476271      -0.02253852       1.78660255
H       -0.67934791      -0.69751639       2.42135241
H        0.63392994       0.61504881       2.47327442
C        0.01484550      -1.77751727      -0.01636693
H        0.67870853      -2.42144646      -0.68295456
H       -0.62264859      -2.45592969       0.64226336
C        1.78714474       0.01002794       0.00389507
H        2.44202412       0.67113390       0.66197326
H        2.45385902      -0.65136977      -0.64189061
C        0.91606151      -0.90478549       0.90901405
