121
Properties=species:S:1:pos:R:3 pbc="F F F"
C        0.00000000       0.00000000       0.00000000
C        0.88182364       0.88182364      -0.88182364
C        1.79082517       1.75853716      -0.29387957
C        2.60023217       2.56176849      -1.10060952
C        2.50934348       2.48819760      -2.49919253
C        1.58067887       1.60715175      -3.07464449
C        0.77093045       0.80383835      -2.26830836
C        3.38505239       3.35502459      -3.37098087
S        2.58119665       4.94084196      -3.75345392
C        3.80038776       5.69412013      -4.72570045
N        4.93606911       5.10583639      -5.03617384
N        5.60442801       5.96326133      -5.85385670
N        4.90531109       7.06548807      -6.05722633
N        3.75144816       6.94575161      -5.33667010
C        2.81149416       8.02109523      -5.34370595
C        3.06380473       9.12701549      -6.18265061
C        2.18278787      10.21227025      -6.23489355
C        1.03933184      10.20847496      -5.44604477
Br      -0.15529509      11.67010449      -5.51006546
C        0.77492124       9.13138437      -4.60573111
C        1.65695559       8.04216130      -4.55146013
H        1.87775617       1.82400123       0.78744165
H        3.30522640       3.24434193      -0.63004843
H        1.48377713       1.53950245      -4.15655597
H        0.06049011       0.12332097      -2.73039190
H        3.61379054       2.82227253      -4.30138882
H        4.33883063       3.53798092      -2.86238147
H        3.94872991       9.16769984      -6.81812471
H        2.40214349      11.04942849      -6.89325278
H       -0.11562510       9.12692430      -3.98072392
H        1.39389309       7.25293093      -3.85982781
C       -0.88182364      -0.88182364      -0.88182364
C       -2.24479230      -0.98531603      -0.61313356
C       -3.05182380      -1.78842785      -1.42235853
C       -2.50151924      -2.48727544      -2.50793894
C       -1.12461934      -2.38002109      -2.75783468
C       -0.31715031      -1.57715671      -1.94877015
C       -3.37383380      -3.35389386      -3.38333018
S       -3.44186516      -5.06433648      -2.76929090
C       -4.49598596      -5.78516474      -3.93905763
N       -4.99303265      -5.12293488      -4.96211180
N       -5.71293005      -6.01911593      -5.68950006
N       -5.66845689      -7.21957222      -5.13999637
N       -4.91708492      -7.11204922      -4.00473573
C       -4.72924551      -8.26462934      -3.18242050
C       -5.24177888      -9.49991884      -3.63177311
C       -5.09165281     -10.66538016      -2.87291870
C       -4.43042060     -10.61100555      -1.65242541
Br      -4.22382281     -12.17989151      -0.62116054
C       -3.92373612      -9.40168499      -1.18661561
C       -4.07323995      -8.23169819      -1.94563887
H       -2.68795414      -0.44656932       0.22020771
H       -4.11484873      -1.86318265      -1.20158536
H       -0.67222147      -2.92047711      -3.58713698
H        0.74645883      -1.50132952      -2.15933228
H       -2.98517112      -3.34393980      -4.40834096
H       -4.38594151      -2.93413597      -3.41911554
H       -5.76531839      -9.58496714      -4.58426893
H       -5.49480869     -11.60368522      -3.24633085
H       -3.41131665      -9.35260212      -0.22810435
H       -3.67083622      -7.32783551      -1.50798011
C       -0.88182364       0.88182364       0.88182364
C       -0.92044382       2.25741468       0.66538339
C       -1.73029874       3.06313415       1.46917729
C       -2.51029776       2.49703971       2.48939614
C       -2.45121173       1.11076756       2.70049581
C       -1.64136311       0.30465748       1.89705657
C       -3.38660944       3.36746824       3.35698017
S       -2.49796915       3.94121084       4.83631255
C       -3.72448238       4.89693902       5.59878692
N       -4.93935923       5.02875151       5.10996860
N       -5.63365103       5.78793109       5.99996392
N       -4.87546538       6.12455669       7.02800341
N       -3.63778767       5.59308227       6.80299993
C       -2.59485616       5.83243005       7.74900914
C       -2.91272984       6.52346773       8.93727327
C       -1.93671798       6.79001443       9.90321925
C       -0.62855522       6.37273549       9.69256086
Br       0.69563881       6.72905283      10.99146084
C       -0.29148669       5.69633435       8.52421568
C       -1.26835726       5.42811779       7.55410197
H       -0.32688582       2.71124132      -0.12381139
H       -1.75081857       4.13671175       1.29208643
H       -3.03846338       0.64926453       3.49210764
H       -1.61115516      -0.76782793       2.07087574
H       -4.27777612       2.80347183       3.65620393
H       -3.73232071       4.23063635       2.77623596
H       -3.92745623       6.86611702       9.14098121
H       -2.21201453       7.32217384      10.81063639
H        0.73310306       5.37372214       8.35140405
H       -0.92547125       4.91656317       6.66461742
C        0.88182364      -0.88182364       0.88182364
C        1.74446785      -0.29431133       1.80446272
C        2.54767455      -1.10109903       2.61383660
C        2.48810403      -2.49939035       2.50923923
C        1.62119356      -3.07426714       1.56701440
C        0.81791168      -2.26787079       0.75729470
C        3.35489494      -3.37126175       3.38490116
S        4.95165525      -3.73137587       2.59246141
C        5.70265279      -4.70798307       3.80957247
N        5.10676256      -5.03458403       4.93673275
N        5.96557468      -5.85049304       5.60547832
N        7.07612760      -6.03700771       4.91489019
N        6.96037392      -5.30678271       3.76671324
C        8.04444334      -5.29496715       2.83688486
C        9.15580355      -6.12591076       3.09175651
C       10.24965933      -6.15976008       2.22053226
C       10.24909777      -5.36026657       1.08448723
Br      11.72232674      -5.39943930      -0.09689118
C        9.16666451      -4.52757184       0.81780037
C        8.06881223      -4.49174119       1.69002360
H        1.79895155       0.78670768       1.90207187
H        3.21919906      -0.63084967       3.32956802
H        1.56462322      -4.15580299       1.45940935
H        0.14841407      -2.72957299       0.03621592
H        2.82880564      -4.30870003       3.59994620
H        3.52417158      -2.86996907       4.34505238
H        9.19421684      -6.76926914       3.97106849
H       11.09089036      -6.81232727       2.44160713
H        9.16462308      -3.89428926      -0.06688922
H        7.27559913      -3.80504660       1.42600610
