150
Properties=species:S:1:pos:R:3 pbc="F F F"
C        1.79172766       1.79172766      -1.79172766
C        2.70072920       2.66844118      -1.20378359
C        3.51013620       3.47167252      -2.01051354
C        3.41924750       3.39810163      -3.40909656
C        2.49058289       2.51705577      -3.98454851
C        1.68083447       1.71374237      -3.17821239
C        4.29495641       4.26492862      -4.28088489
S        3.49110067       5.85074599      -4.66335795
C        4.71029178       6.60402415      -5.63560447
N        5.84597314       6.01574041      -5.94607786
N        6.51433204       6.87316535      -6.76376072
N        5.81521512       7.97539209      -6.96713035
N        4.66135218       7.85565563      -6.24657413
C        3.72139819       8.93099925      -6.25360998
C        3.97370876      10.03691951      -7.09255463
C        3.09269189      11.12217427      -7.14479758
C        1.94923586      11.11837898      -6.35594879
C        1.68482527      10.04128839      -5.51563513
C        2.56685961       8.95206532      -5.46136416
H        2.78766020       2.73390525      -0.12246237
H        4.21513042       4.15424595      -1.53995245
H        2.39368115       2.44940647      -5.06646000
H        0.97039413       1.03322499      -3.64029592
H        4.52369456       3.73217655      -5.21129284
H        5.24873465       4.44788495      -3.77228549
H        4.85863393      10.07760386      -7.72802874
H        3.31204751      11.95933251      -7.80315681
H        0.79427893      10.03682832      -4.89062795
H        2.30379712       8.16283495      -4.76973184
C        1.03846917      12.23270469      -6.40475726
C        0.27570207      13.16595246      -6.44563435
Br      -0.95762781      14.67493519      -6.51172916
C       -1.79172766      -1.79172766      -1.79172766
C       -2.09217379      -3.09119112      -1.38958906
C       -2.90220268      -3.89599230      -2.19412727
C       -3.42097072      -3.40375208      -3.40172289
C       -3.09953443      -2.09591239      -3.79674035
C       -2.28939495      -1.29078913      -2.99260516
C       -4.29754500      -4.27285651      -4.27036841
S       -3.31511485      -5.20917014      -5.48091961
C       -4.56266721      -6.09345552      -6.29379768
N       -5.83981583      -5.96517449      -6.00280109
N       -6.51692858      -6.75570765      -6.87862188
N       -5.68659618      -7.36603627      -7.70510512
N       -4.42241978      -6.98761235      -7.35354981
C       -3.30980211      -7.53015691      -8.06604840
C       -3.56551760      -8.35854136      -9.17912395
C       -2.51987726      -8.92135666      -9.91842981
C       -1.20413849      -8.66683516      -9.55258999
C       -0.92930872      -7.85883610      -8.45360397
C       -1.97610380      -7.29356705      -7.71061825
H       -1.70313049      -3.48608302      -0.45481431
H       -3.12847628      -4.91016194      -1.87069060
H       -3.48078769      -1.69484742      -4.73391252
H       -2.05432744      -0.27852499      -3.31106262
H       -5.02863099      -3.64525496      -4.79327800
H       -4.86347837      -4.96714070      -3.63828601
H       -4.58352740      -8.58125940      -9.49947973
H       -2.74764856      -9.55361505     -10.77327322
H        0.09938238      -7.66227874      -8.15883884
H       -1.68331469      -6.69413047      -6.85891874
C       -0.12316231      -9.24354080     -10.30922802
C        0.78215524      -9.72653177     -10.94291236
Br       2.24597716     -10.50748733     -11.96752635
C       -1.79172766       1.79172766       1.79172766
C       -1.55695380       1.85249361       3.16350656
C       -2.36080572       2.66237421       3.96914233
C       -3.39948646       3.42030434       3.40665489
C       -3.62878232       3.33900099       2.02440387
C       -2.82529044       2.52911637       1.21838242
C       -4.26715305       4.29665400       4.27696287
S       -5.72592459       3.39584278       4.88343723
C       -6.49221106       4.62496122       5.83274813
N       -6.01861083       5.84816371       5.94101687
N       -6.90767646       6.54066931       6.70291234
N       -7.92032053       5.77318705       7.06422998
N       -7.68541304       4.53143094       6.54673795
C       -8.61341040       3.47902911       6.81356791
C       -9.79637688       3.79013778       7.51666824
C      -10.74486615       2.80474785       7.81004974
C      -10.52174825       1.49391497       7.40790042
C       -9.35822805       1.16354532       6.71997542
C       -8.40560679       2.14982782       6.42485448
H       -0.75339564       1.27622718       3.61440500
H       -2.16927386       2.70029184       5.03976312
H       -4.43477469       3.90882203       1.56595091
H       -3.01340116       2.48157269       0.14894120
H       -4.58649789       5.17567296       3.70499311
H       -3.67947176       4.66231737       5.12711597
H      -10.00948095       4.80664569       7.84813990
H      -11.64863040       3.07493408       8.35097236
H       -9.17560136       0.13703048       6.40910335
H       -7.51854612       1.81210578       5.90571201
C      -11.49401217       0.47473332       7.70718563
C      -12.30828320      -0.37883131       7.95783700
Br     -13.62489059      -1.75897312       8.36311906
C        1.79172766      -1.79172766       1.79172766
C        1.37356330      -2.12005815       3.07933252
C        2.17818783      -2.93008992       3.88404451
C        3.40200750      -3.42099904       3.40343914
C        3.81284229      -3.07166140       2.10768349
C        3.00862407      -2.26150722       1.30265794
C        4.27077638      -4.29757877       4.27241477
S        5.44959926      -3.31121167       5.24439368
C        6.26848952      -4.55982566       6.12160522
N        6.00072288      -5.83923873       5.96782980
N        6.87464965      -6.51499765       6.76161081
N        7.67730739      -5.68154293       7.39888724
N        7.31113200      -4.41716769       7.03528225
C        7.99627869      -3.30223498       7.60749375
C        9.09983026      -3.55348334       8.44986930
C        9.81255302      -2.50540938       9.04170134
C        9.42923536      -1.19176151       8.80256676
C        8.33912335      -0.92151163       7.98111382
C        7.62278059      -1.97075927       7.38674923
H        0.42621154      -1.75280515       3.46501113
H        1.84211093      -3.17828372       4.88893417
H        4.76256249      -3.43098570       1.71599943
H        3.33954709      -2.00463410       0.29973385
H        4.81579306      -5.00962821       3.64174268
H        3.63693173      -4.88507329       4.94690007
H        9.43328039      -4.56969550       8.66129065
H       10.66066371      -2.72967648       9.68419664
H        8.03065622       0.10536271       7.79644169
H        6.77620762      -1.68198223       6.77817405
C       10.15847725      -0.10830902       9.40914486
C       10.76921732       0.79908244       9.91715401
Br      11.75673237       2.26625769      10.73856185
C       -0.00445707       0.01189536      -1.78238275
H       -0.66409135       0.67374010      -2.43557963
H        0.65740317      -0.63156657      -2.45157240
C       -0.90989263      -0.90692880      -0.91072765
C        0.90977584       0.90977584      -0.90977584
C       -0.00465871       1.77757030       0.00794375
H       -0.66225468       2.44313916      -0.64384735
H        0.64322798       2.43503045       0.67728295
C       -1.78241447       0.00034974      -0.00472694
H       -2.45427497      -0.65498947       0.64260836
H       -2.43311707       0.67328779      -0.65473579
C       -0.91132561       0.90220522       0.91563759
C       -0.01476271      -0.02253852       1.78660255
H       -0.67934791      -0.69751639       2.42135241
H        0.63392994       0.61504881       2.47327442
C        0.01484550      -1.77751727      -0.01636693
H        0.67870853      -2.42144646      -0.68295456
H       -0.62264859      -2.45592969       0.64226336
C        1.78714474       0.01002794       0.00389507
H        2.44202412       0.67113390       0.66197326
H        2.45385902      -0.65136977      -0.64189061
C        0.91606151      -0.90478549       0.90901405
