125
Properties=species:S:1:pos:R:3 pbc="F F F"
C        0.00000000       0.00000000       0.00000000
C        0.86788865       0.86788865      -0.86788865
C        1.40907809       0.50137131      -2.07554969
C        2.14234084       1.62401520      -2.53628538
C        2.00534806       2.61155462      -1.57822026
O        1.22211311       2.14269337      -0.55870526
C        2.50435427       3.97145906      -1.51168686
N        3.14492980       4.42721953      -2.55474843
N        3.58750089       5.72582998      -2.48686088
C        3.78996410       6.50387589      -1.37032500
S        3.43142023       5.91728716       0.20571603
C        2.12171959       4.77511130      -0.27392147
N        4.30767244       7.66196166      -1.68039681
N        4.45175124       7.67959525      -3.04320466
C        4.01074285       6.53067444      -3.53966927
C        4.06070938       6.18622738      -4.96433485
C        5.24997730       6.51300244      -5.64938493
C        5.39368941       6.28368291      -7.01916708
C        4.34926107       5.71414908      -7.73578133
C        3.15723509       5.39640711      -7.08535248
C        3.00114639       5.64636596      -5.71206300
H        1.28890260      -0.45289416      -2.56920297
H        2.69958465       1.71357053      -3.45944684
H        1.91889507       4.12687641       0.58204746
H        1.20870686       5.33645849      -0.50106537
H        6.07605950       6.97788852      -5.10980589
H        6.31591457       6.56425565      -7.52287122
H        4.45201672       5.54052626      -8.80427478
H        2.33854227       4.97958443      -7.66811109
C        1.68480259       5.41194583      -5.17737973
C        0.58236466       5.21561898      -4.72958249
Br      -1.20018424       4.89817507      -4.00553222
C       -0.86788865      -0.86788865      -0.86788865
C       -1.56324136      -0.44777565      -1.97498207
C       -2.23175741      -1.59215670      -2.47872731
C       -1.90425268      -2.64566283      -1.64520743
O       -1.06705995      -2.19587541      -0.66057638
C       -2.26394077      -4.05015686      -1.67340255
N       -2.96354143      -4.46998582      -2.69337050
N       -3.27295589      -5.80806810      -2.71916776
C       -3.28480697      -6.70416135      -1.67519668
S       -2.82152879      -6.23398542      -0.08747715
C       -1.68147476      -4.92236391      -0.56691370
N       -3.72095243      -7.87543644      -2.05364203
N       -4.00313683      -7.78001952      -3.39139480
C       -3.72562817      -6.55012871      -3.80532968
C       -3.95498694      -6.08063343      -5.17565124
C       -5.17290673      -6.46315519      -5.77630276
C       -5.47860948      -6.12251592      -7.09541400
C       -4.57207184      -5.38317443      -7.84394522
C       -3.35416034      -5.00606469      -7.27876965
C       -3.03390357      -5.36618761      -5.95948416
H       -1.58487219       0.55587091      -2.37621013
H       -2.87076579      -1.65198507      -3.34985116
H       -1.45276133      -4.33974997       0.32878728
H       -0.74830665      -5.36232388      -0.93560019
H       -5.89139313      -7.05965506      -5.21270573
H       -6.41765363      -6.44863220      -7.53675561
H       -4.80078639      -5.12169729      -8.87433408
H       -2.64295645      -4.45387282      -7.88940852
C       -1.69707012      -5.04784974      -5.52920829
C       -0.57747211      -4.78124178      -5.16885224
Br       1.23282319      -4.35015924      -4.58618699
C       -0.86788865       0.86788865       0.86788865
C       -1.94788300       1.59939157       0.43872452
C       -2.46318271       2.25274775       1.58671095
C       -1.66321093       1.88057714       2.65133487
O       -0.68799400       1.03072240       2.20479534
C       -1.71675781       2.20770956       4.06303281
N       -2.72980597       2.92160586       4.47548593
N       -2.78053917       3.19999725       5.81965533
C       -1.75846323       3.16562349       6.74007827
S       -0.17121485       2.67542564       6.29635087
C       -0.64560140       1.57841157       4.94673940
N       -2.15464671       3.58309048       7.91229372
N       -3.48270680       3.89957842       7.79226594
C       -3.87331192       3.66112113       6.54665351
C       -5.22615511       3.93439537       6.05072113
C       -5.80703610       5.15709530       6.44823328
C       -7.11000601       5.50240642       6.08412697
C       -7.86162610       4.63179859       5.30576679
C       -7.31633111       3.40983410       4.91282948
C       -6.01399859       3.04951479       5.29606197
H       -2.32420237       1.65427739      -0.57326835
H       -3.32022561       2.91096774       1.64140868
H        0.25824518       1.34195694       4.38001226
H       -1.04662152       0.64430507       5.35530413
H       -5.24122768       5.84757191       7.07495432
H       -7.53686747       6.44387838       6.42229559
H       -8.87975447       4.89134960       5.02571368
H       -7.93005059       2.72672682       4.32946038
C       -5.60773914       1.71056257       4.95582644
C       -5.26749686       0.58919008       4.67087918
Br      -4.71735386      -1.22397438       4.21014357
C        0.86788865      -0.86788865       0.86788865
C        1.64862664      -1.90867135       0.42870109
C        2.29094028      -2.43276553       1.57893559
C        1.86124121      -1.67861039       2.65527134
O        0.99022263      -0.72024870       2.21304041
C        2.19184805      -1.72939019       4.06626195
N        3.11685386      -2.57430716       4.43573674
N        3.43781019      -2.59114093       5.77124063
C        2.69658790      -2.13201110       6.83556600
S        1.17489802      -1.36626038       6.60183296
C        1.51017714      -0.69994445       4.96063078
N        3.27721223      -2.39825331       7.97456537
N        4.44916931      -3.04500333       7.68037852
C        4.56393940      -3.15429220       6.36285496
C        5.67647911      -3.83873020       5.69606230
C        6.08860528      -5.06516582       6.25859357
C        7.17182969      -5.78044913       5.74426058
C        7.86561821      -5.28615755       4.64741572
C        7.48828700      -4.06818235       4.08252534
C        6.41321999      -3.33508697       4.61126839
H        1.74981672      -2.24811323      -0.59271854
H        2.99150488      -3.25608447       1.62501268
H        0.55909477      -0.36523947       4.53938978
H        2.17139425       0.16957809       5.04441456
H        5.56944952      -5.46272905       7.13157535
H        7.47755705      -6.71362833       6.21185607
H        8.71511000      -5.83444713       4.24726063
H        8.06209139      -3.68087616       3.24327025
C        6.20349076      -2.02949527       4.04114212
C        6.02784253      -0.93606222       3.56366138
Br       5.74383419       0.83192655       2.79161540
