125
Properties=species:S:1:pos:R:3 pbc="F F F"
C        0.00000000       0.00000000       0.00000000
C        0.88135445       0.88135445      -0.88135445
C        1.16066946       2.18885429      -0.49316332
C        1.96845353       2.99771904      -1.30052081
C        2.49629956       2.51247805      -2.50613072
C        2.21384609       1.18464101      -2.86856827
C        1.40740743       0.37261969      -2.06495003
C        3.35617050       3.32012173      -3.37932762
N        4.28644124       2.83221259      -4.18906512
N        4.90692257       3.87464198      -4.83253494
C        4.31963840       4.97127270      -4.43217703
S        4.72605394       6.58544722      -4.86073270
C        3.10446596       7.32974242      -4.60593588
C        2.40793055       6.79460874      -3.36264349
N        2.45707053       5.57131121      -2.91414593
N        3.30816094       4.70077662      -3.54359894
C        1.51986722       7.70377860      -2.66369161
C        0.72109515       7.52818809      -1.54752143
C        0.06834626       8.76282461      -1.31151861
C        0.50247099       9.61764103      -2.29714809
O        1.37688428       8.98382540      -3.12256886
H        0.76352604       2.58739989       0.43676486
H        2.18913679       4.00548424      -0.95796511
H        2.62616205       0.77130391      -3.78873970
H        1.20353030      -0.64991914      -2.37153079
H        3.24428508       8.41220526      -4.54701067
H        2.46618260       7.11594221      -5.47014402
H        0.62576935       6.61388681      -0.97681051
H       -0.63115234       8.99611561      -0.52058911
C        0.09575630      10.99116819      -2.44413891
C       -0.24486726      12.14149718      -2.56724373
Br      -0.79562673      14.00148188      -2.76629380
C       -0.88135445      -0.88135445      -0.88135445
C       -1.49443837      -2.00808020      -0.34016849
C       -2.30252550      -2.81681322      -1.14735466
C       -2.49802062      -2.51394228      -2.50294543
C       -1.88208077      -1.36274529      -3.02222932
C       -1.07396944      -0.55153517      -2.21947253
C       -3.34451108      -3.32640764      -3.38470113
N       -3.99520850      -2.86721222      -4.44529824
N       -4.70110600      -3.89837067      -5.01462282
C       -4.43817426      -4.97018993      -4.31472393
S       -5.09666111      -6.54285179      -4.53272096
C       -3.73906166      -7.48625126      -3.81483134
C       -3.17166337      -6.82908903      -2.56443037
N       -3.03759107      -5.54902394      -2.35591265
N       -3.56236568      -4.69738840      -3.29278242
C       -2.63158441      -7.70957536      -1.54617767
C       -2.01997219      -7.44288999      -0.33394249
C       -1.69478449      -8.69362830       0.24572331
C       -2.12228920      -9.64921073      -0.64576018
O       -2.68562629      -9.06271271      -1.73493955
H       -1.35840702      -2.26329259       0.70753853
H       -2.78778502      -3.67512145      -0.68967967
H       -2.03126413      -1.08860537      -4.06633616
H       -0.60798927       0.33152251      -2.64867519
H       -4.11312973      -8.49053981      -3.59983147
H       -2.92983518      -7.57457943      -4.54785422
H       -1.83365567      -6.45918866       0.07637766
H       -1.20881324      -8.87186095       1.19512181
C       -1.99665150     -11.07195930      -0.46245260
C       -1.89142992     -12.26351123      -0.30893250
Br      -1.72129553     -14.19014993      -0.06070349
C       -0.88135445       0.88135445       0.88135445
C       -0.97671212       0.62040701       2.24556793
C       -1.78454463       1.42773101       3.05441774
C       -2.51128276       2.49576681       2.50785877
C       -2.38616410       2.74937552       1.13151575
C       -1.58001749       1.94555527       0.31940439
C       -3.36240384       3.37501601       3.31820000
N       -3.63097138       4.64245508       3.03429249
N       -4.43700961       5.15757478       4.01951510
C       -4.67393229       4.18711116       4.86204468
S       -5.57308874       4.27483684       6.32430828
C       -6.08027045       2.54756530       6.41230852
C       -4.96627927       1.59302799       6.00587551
N       -4.07928084       1.79205945       5.07118738
N       -4.06086955       3.02294872       4.46871823
C       -4.94874918       0.29192633       6.64666192
C       -4.11512551      -0.80013691       6.48181608
C       -4.56837114      -1.80115861       7.37547695
C       -5.65222646      -1.26494922       8.02998287
O       -5.89254757      -0.00092548       7.59165645
H       -0.42295061      -0.20118808       2.69239854
H       -1.81846198       1.21436170       4.11976246
H       -2.92143880       3.58449612       0.68027074
H       -1.50412677       2.16360754      -0.74259237
H       -6.41474241       2.35399828       7.43476032
H       -6.92930111       2.38299502       5.73997270
H       -3.28092020      -0.85976324       5.79530970
H       -4.15401277      -2.78932024       7.52085984
C       -6.42993407      -1.93722594       9.03835527
C       -7.08126420      -2.50025769       9.88286715
Br      -8.13440992      -3.41063241      11.24837144
C        0.88135445      -0.88135445       0.88135445
C        1.64429853      -0.30506801       1.89332052
C        2.45273122      -1.11217324       2.70178892
C        2.51428353      -2.49913631       2.50148849
C        1.72287717      -3.05951823       1.48465998
C        0.91340246      -2.25708078       0.67449391
C        3.33908865      -3.38597118       3.33056002
N        3.07108074      -4.66174887       3.57488934
N        4.04151565      -5.16911309       4.40347075
C        4.89939020      -4.20669722       4.61700071
S        6.28521746      -4.25433545       5.63268095
C        7.25737703      -2.99076607       4.79200116
C        6.41127706      -1.80564304       4.34826267
N        5.18657394      -1.85257455       3.90337917
N        4.54456922      -3.06272918       3.94523809
C        7.06032104      -0.50887211       4.31814427
C        6.59915115       0.73859990       3.93625342
C        7.67190708       1.64569421       4.11647662
C        8.72461346       0.90064644       4.59329308
O        8.36506471      -0.40469268       4.71352114
H        1.61315132       0.76720514       2.06821489
H        3.01697449      -0.63599856       3.49961309
H        1.73246004      -4.13632251       1.31742311
H        0.31372407      -2.71759844      -0.10618056
H        8.05140711      -2.67740204       5.47469186
H        7.72588301      -3.42451647       3.90186936
H        5.60482130       0.95966591       3.57131128
H        7.67346906       2.70928350       3.92136683
C       10.02739249       1.41851999       4.92219090
C       11.11846993       1.85223910       5.19764282
Br      12.88264987       2.55352621       5.64302529
