145
Properties=species:S:1:pos:R:3 pbc="F F F"
C        0.00000000       0.00000000       0.00000000
C       -1.13435407       3.88928469      -1.08871579
O       -0.53966489       2.73793051      -0.50090285
C        0.57526311       2.23682341      -1.11835180
C        1.43034184       2.99617046      -1.92043468
C        2.55932790       2.41109980      -2.50579879
C        2.84888101       1.05771402      -2.29861712
C        2.01438622       0.29771240      -1.47545725
C        0.88850396       0.88850396      -0.88850396
C        4.04807282       0.45906792      -2.97033979
N        5.08834928       1.22759765      -3.14424804
N        6.14657419       0.71382836      -3.85585965
C        6.19511005      -0.42116115      -4.62887993
S        4.80362749      -1.40050845      -4.87072849
C        3.96298465      -1.02049676      -3.32610249
N        7.38369791      -0.59879225      -5.14394492
N        8.15991037       0.45348475      -4.72740290
C        7.41242313       1.27198286      -3.99902090
C        7.90278805       2.49303387      -3.35758836
C        9.09833191       2.39360049      -2.61891540
C        9.65359953       3.50434218      -1.98009305
C        9.02085068       4.73892707      -2.06641169
C        7.85182331       4.86687672      -2.81629869
C        7.30374112       3.75722928      -3.47711795
Br       5.81864512       4.10395768      -4.61488404
H       -2.10109391       4.04990914      -0.60147923
H       -1.31968303       3.73979804      -2.15788407
H       -0.52372656       4.78033747      -0.91409727
H        1.25454270       4.05303901      -2.10009459
H        3.20540496       3.02399936      -3.13029913
H        2.22966396      -0.74643877      -1.26818021
H        2.92277650      -1.33831457      -3.43636430
H        4.41839493      -1.59459693      -2.51214186
H        9.61660796       1.43686021      -2.55212536
H       10.58372154       3.40300436      -1.42566807
H        9.44916562       5.60718465      -1.57178765
H        7.38637527       5.84620139      -2.90116184
C       -2.97921372      -2.47540751       1.61097482
O       -2.23940144      -1.43773153       0.97796450
C       -1.98047681      -1.59205208      -0.35790944
C       -2.75963701      -2.36854267      -1.21876729
C       -2.43514896      -2.46393783      -2.57713971
C       -1.32588010      -1.78521055      -3.09412151
C       -0.55740952      -0.98430756      -2.24583879
C       -0.88850396      -0.88850396      -0.88850396
C       -0.99062590      -1.93966847      -4.54718615
N       -1.98175594      -2.09700936      -5.38142967
N       -1.67166335      -2.34735847      -6.69724037
C       -0.46103519      -2.69591211      -7.24588153
S        0.93012494      -2.93786935      -6.26610311
C        0.48214676      -1.82764002      -4.92309711
N       -0.54692476      -2.83925535      -8.54267047
N       -1.85473246      -2.60191512      -8.88415044
C       -2.54612615      -2.35858270      -7.77871806
C       -3.97293263      -2.03282643      -7.74765122
C       -4.42438135      -1.04331755      -8.64314890
C       -5.76907766      -0.67061315      -8.69834395
C       -6.69030612      -1.28078058      -7.85510275
C       -6.27077278      -2.28332347      -6.98090247
C       -4.92420617      -2.67497207      -6.93891010
Br      -4.51798330      -4.17642840      -5.84307514
H       -2.94011067      -2.30087913       2.69069534
H       -2.53541755      -3.45744600       1.41486445
H       -4.03076468      -2.44942515       1.30948165
H       -3.63735316      -2.90334464      -0.86697849
H       -3.05566103      -3.07982016      -3.22422226
H        0.28990228      -0.41882951      -2.62247818
H        1.12387965      -2.07222862      -4.07247726
H        0.68064636      -0.79324509      -5.22334113
H       -3.71912963      -0.56407391      -9.32238999
H       -6.09349261       0.08799686      -9.40689821
H       -7.73856184      -0.99513978      -7.89443630
H       -7.00905374      -2.77396602      -6.35071874
C        0.60838736       0.31314482       4.13888895
O        0.55204449       0.51915734       2.73205562
C       -0.58250150       1.10767835       2.24025848
C       -1.41833352       1.93814169       2.99047176
C       -2.55427518       2.51324936       2.40870196
C       -2.87160324       2.26511176       1.06849715
C       -2.02614367       1.45812015       0.30329205
C       -0.88850396       0.88850396       0.88850396
C       -4.11515432       2.87142388       0.49090231
N       -4.47972077       4.04170903       0.93876516
N       -5.67614472       4.54953747       0.49058001
C       -6.68360582       3.90856221      -0.18933920
S       -6.59398275       2.23073711      -0.55087234
C       -4.80183348       2.08916716      -0.62241026
N       -7.66934595       4.72273893      -0.46323430
N       -7.33376190       5.94561075       0.06142537
C       -6.16563808       5.83748383       0.68030499
C       -5.47016039       6.94465075       1.33859914
C       -5.34930700       8.14708828       0.61445252
C       -4.71361068       9.26441713       1.16000695
C       -4.18331256       9.19966571       2.44321117
C       -4.31684915       8.02884029       3.18930928
C       -4.97428056       6.91205396       2.65175383
Br      -5.25310222       5.44881259       3.83557203
H        1.47390631      -0.32334831       4.34754908
H       -0.28456052      -0.20767388       4.50111245
H        0.75725788       1.25845387       4.66951219
H       -1.20674631       2.17057336       4.03035662
H       -3.19089719       3.15169174       3.01711452
H       -2.22647506       1.27288245      -0.74795211
H       -4.55797922       1.02515511      -0.56230809
H       -4.44348806       2.47514046      -1.58268866
H       -5.77184745       8.22146640      -0.38772032
H       -4.64385472      10.18437505       0.58416419
H       -3.68814408      10.06677603       2.87321781
H       -3.92543041       8.00454259       4.20376551
C        4.09617872       0.75397239       0.50144008
O        2.68584462       0.63542656       0.64875041
C        2.21752937      -0.53979036       1.17311861
C        2.96808060      -1.37869770       2.00016867
C        2.41050224      -2.55822926       2.50749500
C        1.09457427      -2.91664982       2.19398806
C        0.32776763      -2.06964378       1.39014446
C        0.88850396      -0.88850396       0.88850396
C        0.54426575      -4.20471191       2.72850286
N        0.96104117      -4.59827618       3.90087762
N        0.54184419      -5.83037546       4.34404255
C       -0.07213968      -6.83679784       3.63817068
S       -0.37222881      -6.69415443       1.95192190
C       -0.50983551      -4.90185264       1.87657325
N       -0.33750535      -7.86408272       4.40227321
N        0.12594849      -7.55772386       5.65712567
C        0.70135004      -6.36329536       5.61878150
C        1.28829653      -5.68783765       6.77727610
C        0.51423094      -5.64304736       7.95356949
C        0.99060964      -5.03201715       9.11540797
C        2.25313648      -4.45064050       9.12241247
C        3.04841197      -4.50851431       7.97807244
C        2.58086769      -5.14096050       6.81626016
Br       3.83023197      -5.31539115       5.39186372
H        4.29438667       1.65161370      -0.09247851
H        4.51354167      -0.10287082      -0.03841340
H        4.58371367       0.88522607       1.47222058
H        3.98897963      -1.13676737       2.28192929
H        3.01888823      -3.19600796       3.14480727
H       -0.70673643      -2.30265806       1.15548378
H       -0.41868666      -4.61354355       0.82596934
H       -1.49778827      -4.59638093       2.23734719
H       -0.47237287      -6.10641829       7.97154811
H        0.37751594      -5.02125864      10.01361938
H        2.62937543      -3.97436255      10.02439994
H        4.04659967      -4.07774658       8.00939226
