161
Properties=species:S:1:pos:R:3 pbc="F F F"
C        0.00000000       0.00000000       0.00000000
C        0.88158704       0.88158704      -0.88158704
C        1.77378071       1.77429672      -0.29521895
C        2.58943333       2.56928060      -1.10391929
C        2.52525009       2.47755045      -2.50439144
C        1.59470563       1.59344903      -3.07490231
C        0.78636073       0.78888967      -2.26742003
C        3.41793238       3.37545859      -3.33513939
N        3.83530378       2.77624445      -4.59760506
C        4.67295661       1.68872323      -4.78288697
C        4.74460921       1.43364846      -6.14792189
C        3.93064682       2.40520647      -6.78821464
S        3.43850792       2.85216260      -8.38793008
C        2.51748316       4.12217162      -7.73057471
C        2.55443532       4.23494282      -6.36214445
C        3.39391230       3.21346832      -5.83069798
C        5.34116893       0.97789767      -3.70179743
O        5.65216239       1.50109839      -2.63744365
N        5.57441712      -0.35182613      -3.97657347
C        6.11903032      -1.26735149      -2.98686018
C        5.03099352      -1.73754641      -2.02374006
C        6.76851185      -2.45485835      -3.69057734
H        1.84820387       1.85681515       0.78579442
H        3.29058205       3.25504257      -0.63083645
H        1.49551184       1.50770966      -4.15491390
H        0.08882138       0.09577085      -2.72992774
H        4.33413439       3.64405411      -2.79788656
H        2.88228235       4.30655104      -3.55017141
H        5.32519105       0.66116090      -6.63414023
H        2.02661256       4.98512446      -5.78793530
H        5.09956920      -0.74838108      -4.77558579
H        6.88577632      -0.73193440      -2.41418736
H        4.22043926      -2.24503542      -2.55849993
H        4.59000647      -0.89305860      -1.48354545
H        5.44043826      -2.43329405      -1.28380132
H        6.03636712      -3.01447652      -4.28385026
H        7.21963176      -3.14185488      -2.96772921
H        7.55458789      -2.11625046      -4.37450460
C        1.75061642       5.01610397      -8.55906754
C        1.10836553       5.76477231      -9.25293029
Br       0.06990016       6.97530569     -10.37484766
C       -0.88158704      -0.88158704      -0.88158704
C       -2.23072061      -0.57686869      -1.03570708
C       -3.03178466      -1.37657689      -1.85427168
C       -2.49306874      -2.48455542      -2.52956783
C       -1.13666128      -2.79257181      -2.33382388
C       -0.33111513      -1.98681463      -1.52474066
C       -3.40910523      -3.32969848      -3.38972665
N       -2.74243028      -3.92397701      -4.54274600
C       -2.22272486      -3.27260710      -5.64923485
C       -1.63048523      -4.22843049      -6.46726383
C       -1.81321509      -5.48306686      -5.82778598
S       -1.43556464      -7.15335098      -6.08968499
C       -2.20717666      -7.53930722      -4.62374561
C       -2.73944554      -6.47618151      -3.93589554
C       -2.49542528      -5.27688634      -4.66576698
C       -2.31446671      -1.83619126      -5.87020605
O       -3.22193473      -1.13949395      -5.42927575
N       -1.26937746      -1.32302253      -6.60676446
C       -1.10547818       0.10340543      -6.83646626
C       -0.47912941       0.78194914      -5.62000691
C       -0.25083159       0.32680646      -8.08020571
H       -2.66845205       0.28020783      -0.53098038
H       -4.08303177      -1.11928856      -1.97414073
H       -0.68426879      -3.65487791      -2.81898869
H        0.72102218      -2.23075437      -1.40478778
H       -4.24971991      -2.74585495      -3.78050019
H       -3.82927356      -4.13388019      -2.77585106
H       -1.14464259      -4.05732349      -7.41852610
H       -3.26072631      -6.54862137      -2.99032463
H       -0.46460394      -1.91867450      -6.74349548
H       -2.09848078       0.53661764      -7.00616615
H        0.50141785       0.35196998      -5.38729159
H       -1.10960372       0.66171377      -4.73260336
H       -0.34860095       1.85471789      -5.79706246
H        0.75085812      -0.10032366      -7.95627532
H       -0.14291094       1.39423738      -8.29683254
H       -0.70613885      -0.15324073      -8.95346245
C       -2.29244963      -8.89304403      -4.14029428
C       -2.36386574     -10.02679860      -3.73540378
Br      -2.47933956     -11.85998385      -3.08073011
C       -0.88158704       0.88158704       0.88158704
C       -0.71647933       2.26331781       0.86349923
C       -1.53400004       3.06854084       1.66009235
C       -2.52611935       2.50277335       2.47829927
C       -2.65342098       1.10417144       2.50546455
C       -1.84444028       0.29787265       1.70035750
C       -3.37279121       3.41916680       3.33657236
N       -4.73074443       2.93079959       3.54760927
C       -5.73896234       2.79858553       2.60701895
C       -6.84345336       2.24105779       3.24166841
C       -6.47845879       2.04562568       4.59998346
S       -7.17121455       1.43973554       6.06765052
C       -5.71374753       1.78093310       6.87554886
C       -4.72080361       2.32958849       6.10113048
C       -5.19585089       2.47650460       4.76572311
C       -5.61276166       3.19624494       1.21185742
O       -4.87020589       4.09300563       0.82749291
N       -6.39284965       2.45311369       0.35320112
C       -6.32358548       2.60609383      -1.09114031
C       -5.12043214       1.85725579      -1.66050076
C       -7.61965773       2.10622375      -1.72165064
H        0.03788111       2.72503207       0.23207363
H       -1.40069685       4.14873681       1.62702741
H       -3.39287459       0.62309455       3.14216626
H       -1.97483976      -0.78077479       1.72045500
H       -3.46409020       4.41741815       2.89456670
H       -2.88854944       3.53850563       4.31194974
H       -7.80426492       2.01950286       2.79672441
H       -3.73695602       2.60424039       6.45847591
H       -6.80287127       1.60499798       0.71890467
H       -6.20922516       3.67354405      -1.31473994
H       -5.17146341       0.78822932      -1.42578896
H       -4.18318279       2.24082169      -1.24351117
H       -5.07378023       1.96631178      -2.74914648
H       -7.77806510       1.04179091      -1.51411516
H       -7.60799746       2.24481131      -2.80730268
H       -8.48075630       2.65050137      -1.31841564
C       -5.53800154       1.50909248       8.27869391
C       -5.39081428       1.28142596       9.45382789
Br      -5.15282492       0.91330845      11.35392014
C        0.88158704      -0.88158704       0.88158704
C        0.52296247      -1.11437271       2.20596120
C        1.32351687      -1.93296079       3.00615556
C        2.48633287      -2.52987810       2.49098101
C        2.84657700      -2.25505886       1.16142111
C        2.04064987      -1.44599319       0.35602736
C        3.32894104      -3.39341931       3.40617001
N        4.00809542      -4.48444480       2.71661307
C        3.43536913      -5.59337599       2.11582170
C        4.45570470      -6.33712382       1.53335105
C        5.66834743      -5.65020438       1.80551612
S        7.36490042      -5.81655794       1.49714225
C        7.64390548      -4.37330984       2.35301416
C        6.52553421      -3.76149434       2.86449404
C        5.37528209      -4.53311017       2.52968635
C        2.00857124      -5.88429673       2.12799606
O        1.25046723      -5.52008881       3.02014839
N        1.58006325      -6.59245313       1.02664807
C        0.17540137      -6.87930902       0.78382862
C       -0.53145853      -5.66655831       0.18208739
C        0.05170136      -8.08937838      -0.13684890
H       -0.37664879      -0.67124894       2.62462444
H        1.02425812      -2.11503912       4.03716383
H        3.75113758      -2.67771742       0.72928040
H        2.32662654      -1.26440185      -0.67650842
H        2.72658521      -3.85066138       4.19882846
H        4.08244937      -2.76418885       3.89236659
H        4.35314009      -7.27073088       0.99662121
H        6.52829608      -2.83980833       3.43156791
H        2.21796961      -6.66272899       0.24607531
H       -0.29431294      -7.11638704       1.74595519
H       -0.06857870      -5.36735342      -0.76487096
H       -0.48322337      -4.80597485       0.85774183
H       -1.58731643      -5.88623795      -0.00797600
H        0.51795155      -7.89782927      -1.11003996
H       -0.99796308      -8.34938540      -0.30591623
H        0.55183079      -8.96057045       0.30044079
C        8.96742546      -3.83282029       2.52554218
C       10.07587344      -3.38016029       2.67003440
Br      11.86814007      -2.64824736       2.90366609
