153
Properties=species:S:1:pos:R:3 pbc="F F F"
C        0.00000000       0.00000000       0.00000000
C        0.88158704       0.88158704      -0.88158704
C        1.77378071       1.77429672      -0.29521895
C        2.58943333       2.56928060      -1.10391929
C        2.52525009       2.47755045      -2.50439144
C        1.59470563       1.59344903      -3.07490231
C        0.78636073       0.78888967      -2.26742003
C        3.41793238       3.37545859      -3.33513939
N        3.83530378       2.77624445      -4.59760506
C        4.67295661       1.68872323      -4.78288697
C        4.74460921       1.43364846      -6.14792189
C        3.93064682       2.40520647      -6.78821464
S        3.43850792       2.85216260      -8.38793008
C        2.51748316       4.12217162      -7.73057471
Br       1.51675309       5.28871717      -8.81172433
C        2.55443532       4.23494282      -6.36214445
C        3.39391230       3.21346832      -5.83069798
C        5.34116893       0.97789767      -3.70179743
O        5.65216239       1.50109839      -2.63744365
N        5.57441712      -0.35182613      -3.97657347
C        6.11903032      -1.26735149      -2.98686018
C        5.03099352      -1.73754641      -2.02374006
C        6.76851185      -2.45485835      -3.69057734
H        1.84820387       1.85681515       0.78579442
H        3.29058205       3.25504257      -0.63083645
H        1.49551184       1.50770966      -4.15491390
H        0.08882138       0.09577085      -2.72992774
H        4.33413439       3.64405411      -2.79788656
H        2.88228235       4.30655104      -3.55017141
H        5.32519105       0.66116090      -6.63414023
H        2.02661256       4.98512446      -5.78793530
H        5.09956920      -0.74838108      -4.77558579
H        6.88577632      -0.73193440      -2.41418736
H        4.22043926      -2.24503542      -2.55849993
H        4.59000647      -0.89305860      -1.48354545
H        5.44043826      -2.43329405      -1.28380132
H        6.03636712      -3.01447652      -4.28385026
H        7.21963176      -3.14185488      -2.96772921
H        7.55458789      -2.11625046      -4.37450460
C       -0.88158704      -0.88158704      -0.88158704
C       -1.55480823      -0.32401135      -1.96447680
C       -2.34916353      -1.13551205      -2.77795765
C       -2.47538520      -2.51094811      -2.52085867
C       -1.81319466      -3.04617348      -1.40368883
C       -1.00868946      -2.23818632      -0.59579464
C       -3.36399777      -3.34223118      -3.42230141
N       -2.91007179      -4.71926258      -3.57981891
C       -1.76328833      -5.16547538      -4.21580311
C       -1.70658100      -6.54738817      -4.07221039
C       -2.85915912      -6.92910313      -3.33580568
S       -3.59830164      -8.36691902      -2.71337995
C       -4.86468474      -7.42194430      -2.08360044
Br      -6.29796410      -8.18304927      -1.13618122
C       -4.76736044      -6.07116987      -2.31299227
C       -3.57870790      -5.80639946      -3.05297124
C       -0.81971195      -4.29631778      -4.90483429
O       -1.13461356      -3.23145013      -5.42464074
N        0.47334097      -4.77178512      -4.90072030
C        1.58812315      -4.00026352      -5.42639864
C        2.05183456      -2.95505168      -4.41397005
C        2.73172446      -4.93975075      -5.79620455
H       -1.46565510       0.73549360      -2.18906309
H       -2.86092233      -0.68733183      -3.62820691
H       -1.90223450      -4.10143448      -1.15446642
H       -0.48768231      -2.67748205       0.25064438
H       -3.42948189      -2.91683811      -4.42975505
H       -4.37789360      -3.35351549      -3.00759573
H       -0.94649561      -7.20988906      -4.46410751
H       -5.48571206      -5.33310291      -1.98085734
H        0.68233163      -5.53584023      -4.27326532
H        1.24701490      -3.48355724      -6.33148694
H        2.36553980      -3.42448153      -3.47496203
H        1.24716338      -2.25106713      -4.17658957
H        2.89662583      -2.38003077      -4.80754059
H        3.09796442      -5.48491134      -4.91879394
H        3.57077134      -4.38654494      -6.22973250
H        2.39954580      -5.68336037      -6.52902746
C       -0.88158704       0.88158704       0.88158704
C       -2.03635019       1.45225890       0.35468729
C       -2.84873544       2.24656123       1.16733656
C       -2.51856413       2.47492909       2.51369876
C       -1.33168465       1.91587275       3.01549958
C       -0.52401108       1.11134877       2.20731058
C       -3.42337844       3.35913799       3.34601394
N       -3.46933562       2.98492799       4.75488968
C       -4.00350471       1.83287696       5.30818515
C       -3.77441292       1.87265021       6.67911643
C       -3.09117784       3.08900654       6.94388355
S       -2.43224346       3.95372019       8.29263696
C       -1.94160200       5.19289398       7.23573351
Br      -1.04333337       6.72555066       7.84831057
C       -2.24453399       4.99653175       5.91045684
C       -2.92206341       3.75144633       5.76456886
C       -4.68189111       0.79662056       4.54235235
O       -5.28323699       1.01173521       3.49573222
N       -4.56736696      -0.46109868       5.09289617
C       -5.06633134      -1.65196831       4.42417598
C       -4.09068101      -2.11984565       3.34635181
C       -5.30610656      -2.75366495       5.45178923
H       -2.31763609       1.28280789      -0.68121937
H       -3.75496900       2.67720628       0.74428579
H       -1.02610227       2.08641139       4.04562174
H        0.37848359       0.67069937       2.62230419
H       -4.45653817       3.33727163       2.98226525
H       -3.07391895       4.39463820       3.27044765
H       -4.07705912       1.13411595       7.40931711
H       -2.00328271       5.68512985       5.11125976
H       -3.88344966      -0.58337251       5.82669676
H       -6.02045411      -1.39894574       3.94652091
H       -3.10732702      -2.34654590       3.77312265
H       -3.94726863      -1.34874627       2.58197096
H       -4.46345030      -3.02139861       2.84889384
H       -4.37626378      -3.03156923       5.96104631
H       -5.71774444      -3.65049483       4.97825648
H       -6.01286046      -2.41927905       6.21926062
C        0.88158704      -0.88158704       0.88158704
C        0.43381644      -1.26821525       2.14126469
C        1.23610217      -2.08662178       2.93990928
C        2.49003837      -2.52995994       2.48719367
C        2.93589859      -2.10101382       1.22614457
C        2.12962961      -1.29202413       0.42101668
C        3.32837096      -3.40017316       3.39998624
N        4.16420636      -4.35877706       2.68616987
C        3.75245334      -5.45129755       1.94081593
C        4.88471366      -6.04618701       1.39527890
C        5.99923018      -5.28614178       1.83869597
S        7.72413279      -5.27598356       1.67848425
C        7.79108463      -3.90122280       2.67792205
Br       9.41820132      -3.07419829       3.12479498
C        6.58014279      -3.43893331       3.13244648
C        5.54088548      -4.27170346       2.62548966
C        2.36371550      -5.86383357       1.79331496
O        1.50066178      -5.65199772       2.63804493
N        2.10031126      -6.49924682       0.59960638
C        0.75510018      -6.88180298       0.20163585
C       -0.00850899      -5.68310427      -0.35740811
C        0.82577652      -8.00581143      -0.82735711
H       -0.53625909      -0.94564998       2.50983371
H        0.86768955      -2.39018593       3.91858560
H        3.91011376      -2.40158451       0.84643713
H        2.48504631      -0.98994255      -0.56046888
H        2.70580839      -3.98027269       4.08999397
H        3.97452210      -2.75705681       4.00742590
H        4.91722762      -6.93037717       0.77288739
H        6.44715433      -2.57802076       3.77449722
H        2.80683036      -6.44042601      -0.12048246
H        0.22874368      -7.24809845       1.09118716
H        0.50390528      -5.25720906      -1.22721057
H       -0.09998412      -4.88911647       0.39136096
H       -1.01864720      -5.97397583      -0.66438310
H        1.35394265      -7.68392725      -1.73212905
H       -0.17622440      -8.33812666      -1.11639616
H        1.36630254      -8.86804139      -0.42150191
