174
Properties=species:S:1:pos:R:3 pbc="F F F"
C        1.79149107       1.79149107      -1.79149107
C        2.68368474       2.68420074      -1.20512298
C        3.49933736       3.47918463      -2.01382332
C        3.43515411       3.38745448      -3.41429546
C        2.50460966       2.50335305      -3.98480634
C        1.69626475       1.69879369      -3.17732405
C        4.32783641       4.28536262      -4.24504341
N        4.74520780       3.68614847      -5.50750909
C        5.58286064       2.59862725      -5.69279100
C        5.65451323       2.34355249      -7.05782592
C        4.84055084       3.31511050      -7.69811866
S        4.34841194       3.76206663      -9.29783411
C        3.42738718       5.03207565      -8.64047873
Br       2.42665712       6.19862119      -9.72162836
C        3.46433934       5.14484684      -7.27204847
C        4.30381633       4.12337234      -6.74060201
C        6.25107296       1.88780169      -4.61170145
O        6.56206641       2.41100241      -3.54734768
N        6.48432114       0.55807789      -4.88647749
C        7.02893434      -0.35744747      -3.89676421
C        5.94089754      -0.82764238      -2.93364408
C        7.67841587      -1.54495432      -4.60048137
H        2.75810789       2.76671918      -0.12410960
H        4.20048607       4.16494660      -1.54074047
H        2.40541586       2.41761368      -5.06481793
H        0.99872540       1.00567488      -3.63983176
H        5.24403841       4.55395813      -3.70779058
H        3.79218638       5.21645507      -4.46007544
H        6.23509507       1.57106492      -7.54404426
H        2.93651658       5.89502848      -6.69783932
H        6.00947322       0.16152295      -5.68548982
H        7.79568035       0.17796962      -3.32409139
H        5.13034328      -1.33513139      -3.46840395
H        5.49991049       0.01684542      -2.39344947
H        6.35034228      -1.52339003      -2.19370534
H        6.94627115      -2.10457250      -5.19375428
H        8.12953579      -2.23195085      -3.87763324
H        8.46449191      -1.20634644      -5.28440862
C       -1.79149107      -1.79149107      -1.79149107
C       -1.76267576      -1.63615964      -3.17417305
C       -2.55935512      -2.45373956      -3.97925062
C       -3.38836741      -3.43619187      -3.41234478
C       -3.42611283      -3.55353838      -2.01311783
C       -2.62098700      -2.74454955      -1.20684594
C       -4.24615673      -4.28326990      -4.32881581
N       -4.47004507      -5.63628658      -3.83253371
C       -3.53745279      -6.65005179      -3.68677431
C       -4.18364362      -7.74620003      -3.12604799
C       -5.54070016      -7.37044539      -2.94263445
S       -7.01733003      -8.04876750      -2.34221515
C       -7.81265312      -6.58815301      -2.69913543
Br      -9.64447007      -6.34365690      -2.35877970
C       -7.02754010      -5.60445324      -3.24924132
C       -5.69449441      -6.08975792      -3.38353834
C       -2.13872202      -6.53630163      -4.07555245
O       -1.74297887      -5.80270401      -4.97473362
N       -1.29070168      -7.31711658      -3.32105826
C        0.15511350      -7.25893343      -3.46443115
C        0.72765325      -6.05455819      -2.71999431
C        0.77308384      -8.55582421      -2.95120254
H       -1.12281619      -0.88943405      -3.63668644
H       -2.51787515      -2.32821055      -5.06008745
H       -4.07127842      -4.28518617      -1.53138288
H       -2.64946916      -2.86727568      -0.12748720
H       -3.79789122      -4.38459448      -5.32330142
H       -5.21728038      -3.79312453      -4.45831197
H       -3.74696203      -8.70850259      -2.89473964
H       -7.37609860      -4.62009341      -3.53319238
H       -1.66512691      -7.71866496      -2.47269412
H        0.38689840      -7.15357792      -4.53106184
H        0.48518776      -6.09649971      -1.65230389
H        0.31988309      -5.11714109      -3.11294739
H        1.81732771      -6.01621450      -2.82177080
H        0.55707582      -8.70535704      -1.88717170
H        1.85972523      -8.55265583      -3.08228757
H        0.36763096      -9.41788495      -3.49230011
C       -1.79149107       1.79149107       1.79149107
C       -2.90128289       2.42797428       1.24375128
C       -3.71437667       3.22229448       2.05567416
C       -3.42995695       3.38508861       3.42185849
C       -2.28664265       2.75988221       3.94624418
C       -1.47882683       1.95537324       3.13818243
C       -4.33265586       4.27212764       4.25345893
N       -4.44954757       3.84596698       5.64335082
C       -5.04956531       2.69579465       6.12891893
C       -4.87433356       2.67339670       7.50816138
C       -4.15584251       3.85021623       7.84772126
S       -3.51870574       4.63507726       9.25452968
C       -2.93856688       5.89342174       8.26795294
Br      -2.00713190       7.36399372       8.97578105
C       -3.19540082       5.76067617       6.92515767
C       -3.91407659       4.55035485       6.70335924
C       -5.73614756       1.71793985       5.29648870
O       -6.28623843       1.99725823       4.23691984
N       -5.69244664       0.43632603       5.80010385
C       -6.20975155      -0.70685354       5.06535307
C       -5.21040136      -1.17157544       4.00807333
C       -6.53293156      -1.83687543       6.03788679
H       -3.14708317       2.31006068       0.19179281
H       -4.58559832       3.70498221       1.61559262
H       -2.01630939       2.87812956       4.99340853
H       -0.61140092       1.46315776       3.56967337
H       -5.35045252       4.30581321       3.84952140
H       -3.94073911       5.29490741       4.23307037
H       -5.23433008       1.91997654       8.19589764
H       -2.89586120       6.46936549       6.16415769
H       -5.04377030       0.25846282       6.55425287
H       -7.13345132      -0.39748251       4.56177254
H       -4.25445693      -1.45387466       4.46303357
H       -5.00676241      -0.37792864       3.28137161
H       -5.59741642      -2.03756375       3.46080492
H       -5.63570317      -2.17133448       6.57108424
H       -6.95953314      -2.69751092       5.51319595
H       -7.25649490      -1.50425508       6.79031428
C        1.79149107      -1.79149107       1.79149107
C        1.81397270      -1.59062271       3.16841304
C        2.61025660      -2.40790823       3.97418047
C        3.38762173      -3.43536419       3.41391814
C        3.37473638      -3.59912279       2.01890988
C        2.56969722      -2.79017524       1.21251004
C        4.24772007      -4.28055497       4.32996740
N        4.41098764      -5.65565212       3.87222559
C        3.44172722      -6.64184808       3.79070359
C        4.03299656      -7.77656295       3.24633213
C        5.39460818      -7.45253283       3.00663899
S        6.82760977      -8.19893003       2.38177288
C        7.68127071      -6.75494547       2.66372538
Br       9.50763266      -6.58298697       2.25628704
C        6.94723584      -5.72825510       3.20574372
C        5.60442164      -6.16410889       3.39926015
C        2.06119395      -6.46886472       4.22051743
O        1.71968793      -5.69373124       5.10699733
N        1.16359457      -7.24488878       3.52039318
C       -0.27397699      -7.13377860       3.70844947
C       -0.83182002      -5.93565017       2.94306910
C       -0.95040667      -8.42520572       3.25914387
H        1.21443654      -0.80834170       3.62615843
H        2.60902868      -2.24615374       5.05099073
H        3.97941789      -4.36714175       1.54128783
H        2.55808154      -2.94864738       0.13750312
H        3.82991889      -4.33459886       5.34126938
H        5.23798268      -3.81922644       4.41150777
H        3.55791394      -8.73070441       3.06158590
H        7.33676504      -4.74742983       3.44518952
H        1.49624980      -7.68597545       2.67426074
H       -0.46643155      -6.98627129       4.77790161
H       -0.62667989      -6.02020364       1.87009209
H       -0.38101708      -5.00016977       3.29105270
H       -1.91566969      -5.85761396       3.07871333
H       -0.77505447      -8.61623075       2.19427665
H       -2.03138465      -8.38145976       3.42514306
H       -0.55519275      -9.28238255       3.81536430
C       -0.00445707       0.01189536      -1.78238275
H       -0.66409135       0.67374010      -2.43557963
H        0.65740317      -0.63156657      -2.45157240
C       -0.90989263      -0.90692880      -0.91072765
C        0.90977584       0.90977584      -0.90977584
C       -0.00465871       1.77757030       0.00794375
H       -0.66225468       2.44313916      -0.64384735
H        0.64322798       2.43503045       0.67728295
C       -1.78241447       0.00034974      -0.00472694
H       -2.45427497      -0.65498947       0.64260836
H       -2.43311707       0.67328779      -0.65473579
C       -0.91132561       0.90220522       0.91563759
C       -0.01476271      -0.02253852       1.78660255
H       -0.67934791      -0.69751639       2.42135241
H        0.63392994       0.61504881       2.47327442
C        0.01484550      -1.77751727      -0.01636693
H        0.67870853      -2.42144646      -0.68295456
H       -0.62264859      -2.45592969       0.64226336
C        1.78714474       0.01002794       0.00389507
H        2.44202412       0.67113390       0.66197326
H        2.45385902      -0.65136977      -0.64189061
C        0.91606151      -0.90478549       0.90901405
