182
Properties=species:S:1:pos:R:3 pbc="F F F"
C        1.79155885       1.79155885      -1.79155885
C        2.16218215       1.35485158      -3.05945637
C        2.96072589       2.16884310      -3.86943405
C        3.39645088       3.42729091      -3.42463360
C        2.99412780       3.85279075      -2.14779781
C        2.20675795       3.03652166      -1.32993574
C        4.19377901       4.35147365      -4.32019923
N        5.45556170       3.77516334      -4.77728012
C        5.71986952       3.23139335      -6.03220070
C        7.02659018       2.76212617      -6.02316531
C        7.59215919       3.15237355      -4.78630362
S        9.12732727       3.04036853      -3.99139672
C        8.50927116       3.97588299      -2.69716440
C        7.18331779       4.32052933      -2.83569504
C        6.64528816       3.81263125      -4.05467126
C        4.76977600       3.14142949      -7.13458582
O        3.55255539       3.12343871      -6.99030851
N        5.35937589       3.10697140      -8.38113433
C        4.57911946       3.09775811      -9.60849878
C        4.09654674       4.50297955      -9.96192566
C        5.41050903       2.51234888     -10.74586842
H        1.82724149       0.39170586      -3.43538119
H        3.21805433       1.81366076      -4.86494538
H        3.27734244       4.83486130      -1.77701488
H        1.91406232       3.38802935      -0.34405920
H        4.43429923       5.29165910      -3.81489848
H        3.59181445       4.64046718      -5.18455712
H        7.52988705       2.22342672      -6.81632180
H        9.17104684       4.22932188      -1.88003924
H        6.34022873       3.34247854      -8.44178858
H        3.70301220       2.45841419      -9.44635361
H        4.94006166       5.17615693     -10.15083714
H        3.50604208       4.93635277      -9.14800190
H        3.46863334       4.48278498     -10.85888921
H        6.29684754       3.12491924     -10.94666148
H        4.82374653       2.44806925     -11.66775521
H        5.75873261       1.50487535     -10.49279318
C        6.50504499       5.12898643      -1.85592817
C        5.93699152       5.80606926      -1.03537342
Br       5.01849710       6.90085492       0.29139422
C       -1.79155885      -1.79155885      -1.79155885
C       -1.86051705      -3.16085736      -1.55511570
C       -2.67720915      -3.96473468      -2.35705920
C       -3.43499986      -3.41167584      -3.40169969
C       -3.36170247      -2.02424214      -3.60877175
C       -2.53644285      -1.21911624      -2.81765625
C       -4.38323897      -4.25651462      -4.22569831
N       -3.72608021      -5.35862388      -4.92330107
C       -3.72847125      -6.70158453      -4.55340777
C       -2.94819342      -7.39406782      -5.46962042
C       -2.58404196      -6.46972014      -6.47707426
S       -1.70340266      -6.48685694      -7.96883292
C       -2.12038281      -4.84471001      -8.21722573
C       -2.85572139      -4.29036292      -7.19345785
C       -3.10368421      -5.24513752      -6.16376894
C       -4.40149874      -7.25837766      -3.38591492
O       -4.67334148      -6.61357017      -2.37939097
N       -4.74206308      -8.58863638      -3.51678217
C       -5.48938863      -9.30252308      -2.49346464
C       -6.98177209      -8.99209293      -2.58758693
C       -5.24243993     -10.80236276      -2.62392364
H       -1.29632634      -3.61384173      -0.74416046
H       -2.73051923      -5.02882426      -2.13731699
H       -3.95914857      -1.54783420      -4.38223585
H       -2.49432066      -0.14901256      -3.00281766
H       -4.89895094      -3.65871157      -4.98319430
H       -5.17711459      -4.65167813      -3.58804602
H       -2.68646643      -8.44437759      -5.43879154
H       -1.79330254      -4.35997652      -9.12712890
H       -4.68781336      -8.99722752      -4.43945497
H       -5.12453493      -8.96852637      -1.51471870
H       -7.39648204      -9.32514189      -3.54543180
H       -7.16955638      -7.91655698      -2.50428338
H       -7.53299124      -9.49270569      -1.78461061
H       -5.59819787     -11.18150390      -3.58872649
H       -5.75494950     -11.35474288      -1.82987861
H       -4.17196721     -11.02616470      -2.55826924
C       -3.31748794      -2.92738595      -7.24508570
C       -3.70421744      -1.78589274      -7.28832401
Br      -4.32952632       0.05980523      -7.35823672
C       -1.79155885       1.79155885       1.79155885
C       -1.69930836       3.17677377       1.70040798
C       -2.51565023       3.98224042       2.50111237
C       -3.43365746       3.41520343       3.39951450
C       -3.52019222       2.01446447       3.46005967
C       -2.69668086       1.20576262       2.67077186
C       -4.37849882       4.27338119       4.21357189
N       -3.69626926       5.22318051       5.08855539
C       -3.52619323       6.58819758       4.86907275
C       -2.78632866       7.09787820       5.92767479
C       -2.62702023       6.04473988       6.85907624
S       -1.91713177       5.81885241       8.42310833
C       -2.51818033       4.21563266       8.44850555
C       -3.18826698       3.84825820       7.30301698
C       -3.22722826       4.92099354       6.36436887
C       -4.00969322       7.32723214       3.70886595
O       -4.23209265       6.81807681       2.61613315
N       -4.23004439       8.66736836       3.95006888
C       -4.78733064       9.55572674       2.94231897
C       -6.30431728       9.40235653       2.85477814
C       -4.40982605      10.99949591       3.25940437
H       -1.00815508       3.64298223       1.00319122
H       -2.43975639       5.06220841       2.39469568
H       -4.24244973       1.53240420       4.11436469
H       -2.78045682       0.12446771       2.74122634
H       -5.03010276       3.66388946       4.84686459
H       -5.05527899       4.81363561       3.54792415
H       -2.42079863       8.11124268       6.03759426
H       -2.34166206       3.61097678       9.32776912
H       -4.23694829       8.97487424       4.91267332
H       -4.35241503       9.28175961       1.97360535
H       -6.78635912       9.68288495       3.79781166
H       -6.58672617       8.36718899       2.63648158
H       -6.71265499      10.03667769       2.06097486
H       -4.82978317      11.31849538       4.22014971
H       -4.77575918      11.67991781       2.48389399
H       -3.32179720      11.11044516       3.32415879
C       -3.78468108       2.54541634       7.15986217
C       -4.28417790       1.45428628       7.03997001
Br      -5.09182200      -0.30997874       6.84611454
C        1.79155885      -1.79155885       1.79155885
C        1.96782210      -1.47406490       3.13460310
C        2.76700247      -2.28923555       3.94276501
C        3.39714467      -3.43029287       3.42093785
C        3.18920784      -3.73906223       2.06644629
C        2.40162786      -2.91948615       1.25210134
C        4.19923259      -4.36468397       4.30153534
N        5.32536997      -3.71530849       4.96732670
C        5.38516885      -3.30205329       6.29624142
C        6.61883037      -2.69707580       6.49597548
C        7.35742620      -2.87159080       5.30181935
S        8.94442506      -2.49946671       4.71520074
C        8.58717889      -3.33265640       3.26248326
C        7.30550791      -3.83239768       3.20163657
C        6.58178227      -3.53665485       4.39415355
C        4.31794694      -3.44902415       7.27882022
O        3.13017868      -3.54498914       6.99113480
N        4.76125647      -3.50228481       8.58394035
C        3.85792845      -3.72575653       9.70169137
C        3.51364086      -5.20717277       9.84063832
C        4.48494766      -3.19608077      10.98769790
H        1.48027912      -0.60521529       3.56883413
H        2.87068338      -2.03144671       4.99453039
H        3.62744349      -4.63278287       1.62899227
H        2.26156419      -3.17862576       0.20596093
H        4.60476693      -5.20540050       3.73068937
H        3.54703535      -4.81929484       5.05050855
H        6.96483571      -2.20720806       7.39759179
H        9.35892772      -3.41258027       2.50889997
H        5.75110516      -3.63631807       8.73707261
H        2.93352449      -3.16965605       9.50459945
H        4.40709162      -5.80341003      10.05655408
H        3.07107599      -5.59999126       8.91932949
H        2.79491996      -5.36342110      10.65196648
H        5.41204395      -3.72933425      11.22705006
H        3.79881500      -3.30740697      11.83334902
H        4.73396423      -2.13377566      10.88866126
C        6.83958194      -4.58474013       2.06563753
C        6.44936894      -5.21482693       1.11423833
Br       5.81842752      -6.23362399      -0.42409371
C       -0.00445707       0.01189536      -1.78238275
H       -0.66409135       0.67374010      -2.43557963
H        0.65740317      -0.63156657      -2.45157240
C       -0.90989263      -0.90692880      -0.91072765
C        0.90977584       0.90977584      -0.90977584
C       -0.00465871       1.77757030       0.00794375
H       -0.66225468       2.44313916      -0.64384735
H        0.64322798       2.43503045       0.67728295
C       -1.78241447       0.00034974      -0.00472694
H       -2.45427497      -0.65498947       0.64260836
H       -2.43311707       0.67328779      -0.65473579
C       -0.91132561       0.90220522       0.91563759
C       -0.01476271      -0.02253852       1.78660255
H       -0.67934791      -0.69751639       2.42135241
H        0.63392994       0.61504881       2.47327442
C        0.01484550      -1.77751727      -0.01636693
H        0.67870853      -2.42144646      -0.68295456
H       -0.62264859      -2.45592969       0.64226336
C        1.78714474       0.01002794       0.00389507
H        2.44202412       0.67113390       0.66197326
H        2.45385902      -0.65136977      -0.64189061
C        0.91606151      -0.90478549       0.90901405
