174
Properties=species:S:1:pos:R:3 pbc="F F F"
C        1.79155885       1.79155885      -1.79155885
C        2.16218215       1.35485158      -3.05945637
C        2.96072589       2.16884310      -3.86943405
C        3.39645088       3.42729091      -3.42463360
C        2.99412780       3.85279075      -2.14779781
C        2.20675795       3.03652166      -1.32993574
C        4.19377901       4.35147365      -4.32019923
N        5.45556170       3.77516334      -4.77728012
C        5.71986952       3.23139335      -6.03220070
C        7.02659018       2.76212617      -6.02316531
C        7.59215919       3.15237355      -4.78630362
S        9.12732727       3.04036853      -3.99139672
C        8.50927116       3.97588299      -2.69716440
C        7.18331779       4.32052933      -2.83569504
Br       6.29585852       5.37832312      -1.55375775
C        6.64528816       3.81263125      -4.05467126
C        4.76977600       3.14142949      -7.13458582
O        3.55255539       3.12343871      -6.99030851
N        5.35937589       3.10697140      -8.38113433
C        4.57911946       3.09775811      -9.60849878
C        4.09654674       4.50297955      -9.96192566
C        5.41050903       2.51234888     -10.74586842
H        1.82724149       0.39170586      -3.43538119
H        3.21805433       1.81366076      -4.86494538
H        3.27734244       4.83486130      -1.77701488
H        1.91406232       3.38802935      -0.34405920
H        4.43429923       5.29165910      -3.81489848
H        3.59181445       4.64046718      -5.18455712
H        7.52988705       2.22342672      -6.81632180
H        9.17104684       4.22932188      -1.88003924
H        6.34022873       3.34247854      -8.44178858
H        3.70301220       2.45841419      -9.44635361
H        4.94006166       5.17615693     -10.15083714
H        3.50604208       4.93635277      -9.14800190
H        3.46863334       4.48278498     -10.85888921
H        6.29684754       3.12491924     -10.94666148
H        4.82374653       2.44806925     -11.66775521
H        5.75873261       1.50487535     -10.49279318
C       -1.79155885      -1.79155885      -1.79155885
C       -2.48613945      -2.85897940      -1.23137125
C       -3.30164888      -3.65845807      -2.03889608
C       -3.43465888      -3.40098905      -3.41272746
C       -2.73703436      -2.30689690      -3.95078509
C       -1.91055424      -1.51323774      -3.14942337
C       -4.37482443      -4.20816151      -4.28246595
N       -4.06802117      -5.63594242      -4.30404157
C       -4.73150536      -6.64383763      -3.60812056
C       -4.08673354      -7.84245923      -3.88268887
C       -3.10511851      -7.56305326      -4.86266458
S       -1.93158635      -8.44439201      -5.78311415
C       -1.54087516      -7.00947010      -6.63197329
C       -2.23429407      -5.89833717      -6.20691091
Br      -1.99769836      -4.21362102      -7.01662001
C       -3.13423613      -6.22744239      -5.15091215
C       -5.87269999      -6.45205495      -2.72103637
O       -6.12262522      -5.39985258      -2.14382481
N       -6.68304609      -7.56199740      -2.60243814
C       -7.91331051      -7.54517587      -1.82688997
C       -9.04946292      -6.89687472      -2.61511431
C       -8.28577045      -8.96654844      -1.41640744
H       -2.41354183      -3.07255647      -0.16823023
H       -3.85127252      -4.47308614      -1.57230183
H       -2.83920374      -2.04815160      -5.00186328
H       -1.37781804      -0.67590735      -3.59242549
H       -4.36033833      -3.86066827      -5.31985021
H       -5.40481731      -4.06260272      -3.94941872
H       -4.30500573      -8.81199973      -3.45263011
H       -0.80124953      -7.05958481      -7.41957362
H       -6.54686418      -8.31391478      -3.26371688
H       -7.73352088      -6.95212315      -0.92213597
H       -9.27786760      -7.46643957      -3.52274856
H       -8.78875303      -5.87886155      -2.92278217
H       -9.95964186      -6.84200885      -2.00865683
H       -8.48034616      -9.59543036      -2.29265175
H       -9.18144034      -8.97105028      -0.78708037
H       -7.47076800      -9.43332126      -0.85231190
C       -1.79155885       1.79155885       1.79155885
C       -2.06506467       1.41014902       3.10127642
C       -2.86388130       2.22476120       3.91036054
C       -3.39669882       3.42884434       3.42283223
C       -3.09143434       3.80031577       2.10296625
C       -2.30405846       2.98235136       1.28680552
C       -4.19602716       4.35837878       4.31104595
N       -5.39453207       3.74083839       4.87263471
C       -5.55650500       3.25784646       6.16911211
C       -6.83191954       2.71715190       6.26281021
C       -7.48710344       3.00218392       5.04154900
S       -9.05474723       2.75879908       4.34554620
C       -8.56535166       3.64955713       2.96740976
C       -7.25627534       4.07470389       3.00856292
Br      -6.50485117       5.10299621       1.62009201
C       -6.62262719       3.66982899       4.22013450
C       -4.54312947       3.28553859       7.21712324
O       -3.33682269       3.32660654       7.00287338
N       -5.05968916       3.29167469       8.49611778
C       -4.21340846       3.39777538       9.67419251
C       -3.79529580       4.84590161       9.92025455
C       -4.94468401       2.83494877      10.88909355
H       -1.65385191       0.49077548       3.50970115
H       -3.04434463       1.91490312       4.93741272
H       -3.45191562       4.74172122       1.69558178
H       -2.08759367       3.29107260       0.26748461
H       -4.51895109       5.25250721       3.76939849
H       -3.56507932       4.73052523       5.12123420
H       -7.25799368       2.19886565       7.11277624
H       -9.28513364       3.81752967       2.17774465
H       -6.04780106       3.47560654       8.60108825
H       -3.31162386       2.79956230       9.49659384
H       -4.66509657       5.48121520      10.12074397
H       -3.27726781       5.26282026       9.05030867
H       -3.11852980       4.91322105      10.77855668
H       -5.85295292       3.40817688      11.10729847
H       -4.30496574       2.85750892      11.77709634
H       -5.24666822       1.79660876      10.71312417
C        1.79155885      -1.79155885       1.79155885
C        2.68412932      -2.68480794       1.20755284
C        3.49843199      -3.48347401       2.01709703
C        3.43273313      -3.39859057       3.41705169
C        2.53620331      -2.47649140       3.98202164
C        1.71115922      -1.68567152       3.17638460
C        4.36338106      -4.19846059       4.30361025
N        4.25033236      -5.64238163       4.11529117
C        5.12033937      -6.46253741       3.40058678
C        4.61419418      -7.75475891       3.44292856
C        3.49530183      -7.72698666       4.30854786
S        2.35017621      -8.85596765       4.95294866
C        1.67328218      -7.60396859       5.90506778
C        2.25677194      -6.37192014       5.71085008
Br       1.70265451      -4.85071343       6.67457144
C        3.31093303      -6.44803786       4.75361978
C        6.32213439      -6.02031857       2.70333835
O        6.49510378      -4.87817685       2.29302198
N        7.28221793      -7.00093764       2.56432605
C        8.58194481      -6.73531096       1.96812058
C        9.51996461      -6.06905081       2.97243653
C        9.18735231      -8.03488827       1.44648576
H        2.76673664      -2.76102101       0.12657088
H        4.20345172      -4.15763704       1.53557172
H        2.47806149      -2.35073071       5.06042641
H        1.02249572      -0.98401675       3.63963841
H        4.18017857      -3.99730373       5.36337450
H        5.39660055      -3.88909980       4.13113840
H        5.00964052      -8.62532944       2.93466561
H        0.85935056      -7.84609130       6.57496610
H        7.17099916      -7.84546991       3.10802677
H        8.43228378      -6.05172999       1.12376622
H        9.71397157      -6.72417258       3.82891158
H        9.09070325      -5.13938823       3.36030526
H       10.47970380      -5.82641329       2.50419044
H        9.35972721      -8.74815723       2.26054382
H       10.14347059      -7.84931074       0.94678966
H        8.51455200      -8.51469372       0.72715543
C       -0.00445707       0.01189536      -1.78238275
H       -0.66409135       0.67374010      -2.43557963
H        0.65740317      -0.63156657      -2.45157240
C       -0.90989263      -0.90692880      -0.91072765
C        0.90977584       0.90977584      -0.90977584
C       -0.00465871       1.77757030       0.00794375
H       -0.66225468       2.44313916      -0.64384735
H        0.64322798       2.43503045       0.67728295
C       -1.78241447       0.00034974      -0.00472694
H       -2.45427497      -0.65498947       0.64260836
H       -2.43311707       0.67328779      -0.65473579
C       -0.91132561       0.90220522       0.91563759
C       -0.01476271      -0.02253852       1.78660255
H       -0.67934791      -0.69751639       2.42135241
H        0.63392994       0.61504881       2.47327442
C        0.01484550      -1.77751727      -0.01636693
H        0.67870853      -2.42144646      -0.68295456
H       -0.62264859      -2.45592969       0.64226336
C        1.78714474       0.01002794       0.00389507
H        2.44202412       0.67113390       0.66197326
H        2.45385902      -0.65136977      -0.64189061
C        0.91606151      -0.90478549       0.90901405
