98
Properties=species:S:1:pos:R:3 pbc="F F F"
C        1.82433947       1.82433947      -1.82433947
C        3.07929714       2.13550277      -1.08784174
S        4.49927296       1.23846114      -1.38343492
C        5.41524594       2.14598225      -0.24244781
C        6.77392750       1.95842384       0.08320158
C        7.36561290       2.78882602       1.03595498
C        6.62606000       3.78682851       1.65449939
C        5.27728643       3.96841832       1.32690751
C        4.64339878       3.14229119       0.36344179
C        3.29657341       3.11843807      -0.14506213
H        1.24778516       2.72854573      -2.03940433
H        1.99147057       1.27730251      -2.75630583
H        7.35440258       1.17675899      -0.39975340
H        8.41314311       2.65066974       1.29423060
H        7.10369210       4.42416356       2.39477383
H        2.51733748       3.79785165       0.18118382
C        4.55186684       5.01783475       1.99480840
C        3.94432794       5.89672100       2.55417539
Br       2.96198892       7.31780574       3.45862451
C       -1.82433947      -1.82433947      -1.82433947
C       -1.42500158      -1.63274100      -3.24489906
S       -0.37525822      -2.74182134      -4.00408945
C       -0.41433453      -1.88967039      -5.49967109
C        0.26998900      -2.23695515      -6.68218361
C        0.12577204      -1.43159091      -7.81266508
C       -0.68142772      -0.30357019      -7.77339121
C       -1.35862596       0.03616160      -6.59633288
C       -1.23458260      -0.75936933      -5.42829624
C       -1.81087855      -0.63442695      -4.11476811
H       -2.85701703      -1.50934834      -1.64936985
H       -1.70010295      -2.85227780      -1.47269816
H        0.90319903      -3.11967916      -6.71443484
H        0.65087275      -1.69131549      -8.72913950
H       -0.78162871       0.31238431      -8.66383743
H       -2.47868011       0.16845068      -3.82377588
C       -2.18520658       1.21526725      -6.60495387
C       -2.87746785       2.20276824      -6.61217394
Br      -3.99679578       3.79947382      -6.62384820
C       -1.82433947       1.82433947       1.82433947
C       -1.63712179       1.42113033       3.24438953
S       -0.57457075       2.29043868       4.25615959
C       -0.90455205       1.28487501       5.61424894
C       -0.34405512       1.40275025       6.90234438
C       -0.72490334       0.49872160       7.89485900
C       -1.64406198      -0.50315319       7.61748033
C       -2.19738286      -0.61513781       6.33655219
C       -1.83266217       0.28612308       5.30346293
C       -2.24430597       0.38824250       3.92752515
H       -2.85484904       1.66800979       1.49287639
H       -1.53863641       2.86095639       1.62548611
H        0.37654747       2.18638597       7.12107648
H       -0.29677185       0.58147331       8.89133708
H       -1.92874367      -1.19883655       8.40317471
H       -2.95629049      -0.28262643       3.46034125
C       -3.14769092      -1.67030152       6.09750380
C       -3.94357392      -2.55400114       5.89730077
Br      -5.23044941      -3.98286867       5.57358941
C        1.82433947      -1.82433947       1.82433947
C        3.13739707      -2.01459196       1.15065261
S        4.47873646      -1.05585790       1.58657466
C        5.51508204      -1.83493014       0.45366383
C        6.87618247      -1.54786415       0.22510314
C        7.57355479      -2.28091933      -0.73599018
C        6.93541910      -3.28007758      -1.45710756
C        5.58370317      -3.56073595      -1.22564188
C        4.84392150      -2.83508965      -0.25676298
C        3.47068106      -2.92224756       0.16714499
H        1.29374667      -2.77253482       1.94945373
H        1.90190865      -1.32770655       2.79546372
H        7.37730864      -0.76512732       0.78847901
H        8.62377613      -2.06557000      -0.91976388
H        7.49461047      -3.84075237      -2.20228100
H        2.75592892      -3.62458056      -0.24650417
C        4.96576108      -4.60720512      -1.99807301
C        4.44823458      -5.48362305      -2.64498408
Br       3.61143800      -6.90071672      -3.69098457
C       -0.00445707       0.01189536      -1.78238275
H       -0.66409135       0.67374010      -2.43557963
H        0.65740317      -0.63156657      -2.45157240
C       -0.90989263      -0.90692880      -0.91072765
C        0.90977584       0.90977584      -0.90977584
C       -0.00465871       1.77757030       0.00794375
H       -0.66225468       2.44313916      -0.64384735
H        0.64322798       2.43503045       0.67728295
C       -1.78241447       0.00034974      -0.00472694
H       -2.45427497      -0.65498947       0.64260836
H       -2.43311707       0.67328779      -0.65473579
C       -0.91132561       0.90220522       0.91563759
C       -0.01476271      -0.02253852       1.78660255
H       -0.67934791      -0.69751639       2.42135241
H        0.63392994       0.61504881       2.47327442
C        0.01484550      -1.77751727      -0.01636693
H        0.67870853      -2.42144646      -0.68295456
H       -0.62264859      -2.45592969       0.64226336
C        1.78714474       0.01002794       0.00389507
H        2.44202412       0.67113390       0.66197326
H        2.45385902      -0.65136977      -0.64189061
C        0.91606151      -0.90478549       0.90901405
