122
Properties=species:S:1:pos:R:3 pbc="F F F"
C        1.82466671       1.82466671      -1.82466671
C        1.37694035       3.26753942      -1.70781797
O        0.21044347       3.59398826      -1.47842458
C        2.40609062       4.33927877      -1.89610648
C        2.18477663       5.50691410      -1.27180038
C        3.12589093       6.60785392      -1.40232524
C        2.91602165       7.83265882      -0.77003270
C        3.84719042       8.85955077      -0.93480885
Br       3.55999854      10.52070433      -0.07448774
C        4.98723579       8.68288956      -1.72591785
C        5.20649576       7.46160044      -2.36457952
O        6.27523609       7.16690848      -3.16570871
C        7.22196892       8.20151083      -3.40214799
C        4.26566308       6.43745693      -2.18548656
O        4.49393896       5.19976150      -2.82854947
C        3.60936420       4.13469881      -2.72747254
O        3.81700522       3.07552074      -3.30843832
H        1.72193801       1.46895799      -2.85141312
H        2.83710019       1.68183735      -1.44225001
H        1.29808377       5.66634120      -0.66235360
H        2.03407468       7.99228453      -0.15381271
H        5.68443661       9.50793069      -1.82734240
H        7.97924178       7.81169065      -4.08901218
H        7.72791316       8.48880276      -2.47467917
H        6.75269454       9.06703101      -3.88157342
C       -1.82466671      -1.82466671      -1.82466671
C       -2.49376160      -0.97364698      -2.88488915
O       -2.78260360       0.21245060      -2.71270331
C       -2.82829032      -1.61856272      -4.19462283
C       -2.87927861      -0.81525175      -5.26896074
C       -3.20330221      -1.35143696      -6.58133092
C       -3.26946910      -0.53768499      -7.71155908
C       -3.59269944      -1.10210499      -8.94674561
Br      -3.68083281       0.00494576     -10.47930356
C       -3.85439293      -2.47062104      -9.07102922
C       -3.79245495      -3.29413538      -7.94608540
O       -4.03118289      -4.64089442      -7.93577597
C       -4.41410320      -5.24797026      -9.16355427
C       -3.46110189      -2.71438542      -6.71311926
O       -3.39302190      -3.55226542      -5.57696260
C       -3.09341360      -3.06664586      -4.31147610
O       -3.05758966      -3.80765953      -3.33571508
H       -2.56840169      -2.29496859      -1.17893884
H       -1.14270486      -2.55610408      -2.26237862
H       -2.69044849       0.25295292      -5.18928300
H       -3.07360019       0.52954594      -7.63611768
H       -4.10262328      -2.86718781     -10.04989861
H       -4.60435782      -6.30757838      -8.96800841
H       -3.60712853      -5.18358223      -9.90068432
H       -5.34006794      -4.81019961      -9.55103142
C       -1.82466671       1.82466671       1.82466671
C       -3.22814329       1.25520495       1.86894949
O       -3.72615542       0.61884460       0.93785629
C       -4.04459201       1.49549829       3.10138557
C       -4.98953169       0.58604701       3.38791240
C       -5.83566321       0.73979485       4.56061202
C       -6.82859255      -0.18657799       4.87669860
C       -7.61863064       0.01270415       6.01021525
Br      -8.96504935      -1.24702936       6.43717063
C       -7.43387055       1.12772372       6.83444892
C       -6.44398163       2.06201831       6.52667579
O       -6.16900565       3.19168170       7.24716593
C       -6.98415366       3.46029303       8.38118104
C       -5.65438649       1.84594826       5.38827181
O       -4.64857138       2.79074235       5.08293620
C       -3.83170744       2.67311035       3.96671776
O       -2.97737310       3.51372560       3.70986558
H       -1.82622795       2.82591457       1.39016660
H       -1.34823959       1.80627152       2.80667645
H       -5.15539843      -0.28074712       2.75212726
H       -6.99153683      -1.05827044       4.24690553
H       -8.07086943       1.24386745       7.70497283
H       -6.65732638       4.41221613       8.81040209
H       -6.85760835       2.68746582       9.14632091
H       -8.03631085       3.56773347       8.09725466
C        1.82466671      -1.82466671       1.82466671
C        2.26046057      -3.04795977       1.04387739
O        1.57886806      -3.55407938       0.14990887
C        3.57660756      -3.67157088       1.39329743
C        4.20779945      -4.34036338       0.41532828
C        5.48762651      -4.98465478       0.66378879
C        6.16026889      -5.69097424      -0.33252997
C        7.38274625      -6.29761330      -0.03880951
Br       8.29387124      -7.25492409      -1.39360471
C        7.94477347      -6.21197238       1.23929734
C        7.27940392      -5.50880965       2.24446215
O        7.72010998      -5.35732341       3.53041990
C        8.93638552      -6.00261067       3.88663153
C        6.05521217      -4.89991175       1.93348265
O        5.38703025      -4.18320886       2.95201082
C        4.16147800      -3.56493020       2.74512736
O        3.58975796      -2.96374495       3.64746137
H        1.23415712      -2.11153693       2.69661508
H        2.67273258      -1.19293381       2.09552116
H        3.78033514      -4.42748398      -0.58104056
H        5.73880167      -5.77321949      -1.33184923
H        8.89634278      -6.69922833       1.42413859
H        9.11655571      -5.81411354       4.94927536
H        9.77941327      -5.58643710       3.32554471
H        8.86574214      -7.08668787       3.74886897
C       -0.00445707       0.01189536      -1.78238275
H       -0.66409135       0.67374010      -2.43557963
H        0.65740317      -0.63156657      -2.45157240
C       -0.90989263      -0.90692880      -0.91072765
C        0.90977584       0.90977584      -0.90977584
C       -0.00465871       1.77757030       0.00794375
H       -0.66225468       2.44313916      -0.64384735
H        0.64322798       2.43503045       0.67728295
C       -1.78241447       0.00034974      -0.00472694
H       -2.45427497      -0.65498947       0.64260836
H       -2.43311707       0.67328779      -0.65473579
C       -0.91132561       0.90220522       0.91563759
C       -0.01476271      -0.02253852       1.78660255
H       -0.67934791      -0.69751639       2.42135241
H        0.63392994       0.61504881       2.47327442
C        0.01484550      -1.77751727      -0.01636693
H        0.67870853      -2.42144646      -0.68295456
H       -0.62264859      -2.45592969       0.64226336
C        1.78714474       0.01002794       0.00389507
H        2.44202412       0.67113390       0.66197326
H        2.45385902      -0.65136977      -0.64189061
C        0.91606151      -0.90478549       0.90901405
