109
Properties=species:S:1:pos:R:3 pbc="F F F"
C        0.00000000       0.00000000       0.00000000
C        0.91476269       0.91476269      -0.91476269
C        0.46703633       2.35763540      -0.79791394
O       -0.69946055       2.68408423      -0.56852055
C        1.49618659       3.42937475      -0.98620246
C        1.27487260       4.59701008      -0.36189635
C        2.21598690       5.69794989      -0.49242121
C        2.00611762       6.92275480       0.13987133
C        2.93728639       7.94964675      -0.02490482
C        4.07733176       7.77298553      -0.81601382
C        4.29659173       6.55169642      -1.45467550
O        5.36533207       6.25700446      -2.25580469
C        6.31206489       7.29160680      -2.49224396
C        3.35575906       5.52755290      -1.27558253
O        3.58403494       4.28985748      -1.91864544
C        2.69946018       3.22479478      -1.81756852
O        2.90710120       2.16561672      -2.39853429
H        0.81203399       0.55905397      -1.94150909
H        1.92719617       0.77193333      -0.53234599
H        0.38817975       4.75643717       0.24755042
H        1.12417066       7.08238051       0.75609131
H        4.77453259       8.59802667      -0.91743838
H        7.06933776       6.90178663      -3.17910815
H        6.81800914       7.57889873      -1.56477514
H        5.84279052       8.15712699      -2.97166940
C        2.71877804       9.21352628       0.62966575
C        2.53577728      10.27202538       1.17786860
Br       2.23988055      11.98352891       2.06426625
C       -0.91476269      -0.91476269      -0.91476269
C       -1.12503943      -0.24163561      -2.25591063
O       -1.13538610       0.98266582      -2.40042395
C       -1.34401996      -1.11484471      -3.45289913
C       -0.97780287      -0.61304024      -4.64293592
C       -1.15903668      -1.38597097      -5.86135036
C       -0.79349905      -0.88528105      -7.11022099
C       -0.99636914      -1.66576369      -8.24970514
C       -1.56290966      -2.94171588      -8.16170558
C       -1.93385471      -3.45214241      -6.91696654
O       -2.49986986      -4.67827738      -6.69999397
C       -2.77146404      -5.48548145      -7.83897017
C       -1.71900313      -2.65930225      -5.78058912
O       -2.08995522      -3.18174614      -4.52083649
C       -1.93523959      -2.46364352      -3.34294036
O       -2.28065153      -2.92813723      -2.26246344
H       -1.86546643      -1.05093328      -0.39619734
H       -0.36524407      -1.85282626      -1.01340515
H       -0.54677470       0.38162720      -4.73191900
H       -0.35520568       0.10600539      -7.20125955
H       -1.70344903      -3.51374415      -9.07280445
H       -3.25626603      -6.40269355      -7.49127295
H       -1.84451947      -5.76938231      -8.34778123
H       -3.46218527      -4.98424217      -8.52515946
C       -0.61741381      -1.14683559      -9.53838916
C       -0.30003873      -0.71223331     -10.61766202
Br       0.21312994      -0.00951818     -12.36275496
C       -0.91476269       0.91476269       0.91476269
C       -2.27268845       1.08544234       0.26445488
O       -2.44121096       1.06863474      -0.95670146
C       -3.45654818       1.29836648       1.15684914
C       -4.64862430       0.89912576       0.68602897
C       -5.85510567       1.07190713       1.47934520
C       -7.10598462       0.67222119       1.01079528
C       -8.23384916       0.86831877       1.80967004
C       -8.13227801       1.46171527       3.07233784
C       -6.88544678       1.86691954       3.55059733
O       -6.65591300       2.46131419       4.76091402
C       -7.78411498       2.72665024       5.58515043
C       -5.76069045       1.65853895       2.73966509
O       -4.49861740       2.06428170       3.22963875
C       -3.33209720       1.91830836       2.49141792
O       -2.24985210       2.29387527       2.92752483
H       -0.41264053       1.87791049       1.02204604
H       -0.98416356       0.38217938       1.86513254
H       -4.74839024       0.44676069      -0.29808443
H       -7.20759496       0.21262088       0.03024401
H       -9.03466931       1.59581394       3.65951438
H       -7.42831342       3.23627071       6.48564841
H       -8.26877239       1.79579175       5.89711886
H       -8.49353530       3.39376864       5.08428296
C       -9.52461480       0.45408195       1.32394182
C      -10.60563103       0.10715860       0.91714444
Br     -12.35354284      -0.45378710       0.25938747
C        0.91476269      -0.91476269       0.91476269
C        0.22484602      -2.24217506       1.15556458
O       -1.00118829      -2.36782311       1.18650942
C        1.08320987      -3.44891957       1.37963436
C        0.55805269      -4.63653118       1.03919516
C        1.31526340      -5.86373414       1.22736047
C        0.79034686      -7.11017290       0.88848134
C        1.55662379      -8.25825377       1.09696041
C        2.84224826      -8.18122632       1.64285654
C        3.37691958      -6.93898549       1.98705857
O        4.61466815      -6.73226254       2.53121052
C        5.40871640      -7.87921059       2.80798867
C        2.59805851      -5.79400215       1.76683383
O        3.14497015      -4.53693440       2.11063331
C        2.44237069      -3.35067841       1.94877438
O        2.92826207      -2.27234499       2.27064515
H        1.07319682      -0.38410852       1.85529171
H        1.84274613      -1.03594957       0.35277979
H       -0.44429906      -4.71679673       0.62456882
H       -0.20876637      -7.19265421       0.46657202
H        3.40259941      -9.09873088       1.78866735
H        6.33833825      -7.53830064       3.27359365
H        5.67076642      -8.40616388       1.88475270
H        4.90781850      -8.54721760       3.51655080
C        1.01267034      -9.54442017       0.74554805
C        0.55710933     -10.62158453       0.45124021
Br      -0.17949429     -12.36326819      -0.02463069
