86
Properties=species:S:1:pos:R:3 pbc="F F F"
C        1.78796962       1.78796962      -1.78796962
C        2.88612624       1.26659163      -2.44271484
N        3.70348971       1.99828988      -3.23662478
C        3.43484150       3.31315347      -3.40153736
C        4.23900358       4.12303274      -4.20727334
F        5.30227756       3.59308275      -4.83432649
C        3.98917326       5.48204037      -4.39793217
C        2.90084229       6.06392420      -3.76689481
Br       2.54230033       7.90244442      -4.00989395
C        2.06960259       5.29661649      -2.95316084
C        2.33019129       3.92627433      -2.76721139
C        1.50474517       3.13716265      -1.95170137
H        3.15862234       0.21856286      -2.35365793
H        4.65217275       6.05604052      -5.03656333
H        1.21752407       5.76211052      -2.46182752
H        0.64627115       3.57533938      -1.44824572
C       -1.78796962      -1.78796962      -1.78796962
C       -3.13894046      -1.53560882      -1.92088343
N       -3.96967678      -2.28153655      -2.68719105
C       -3.45384182      -3.33336358      -3.36232693
C       -4.25711443      -4.14229102      -4.16990422
F       -5.56909092      -3.87699109      -4.28360479
C       -3.75614189      -5.23405665      -4.87894726
C       -2.40708764      -5.53850329      -4.78607038
Br      -1.70558072      -7.01207233      -5.73698566
C       -1.56586860      -4.76057552      -3.99293581
C       -2.08104821      -3.66114521      -3.28148358
C       -1.24992603      -2.86600109      -2.47768207
H       -3.61757192      -0.70693125      -1.40633997
H       -4.43303400      -5.82284060      -5.48890200
H       -0.50811576      -5.00720862      -3.92613773
H       -0.18904413      -3.08879183      -2.39202030
C       -1.78796962       1.78796962       1.78796962
C       -1.33350603       3.00423288       2.25769380
N       -2.06874405       3.82784418       3.04181615
C       -3.31818726       3.44372634       3.38761874
C       -4.12783435       4.24747862       4.19399669
F       -3.66370557       5.42692971       4.63905152
C       -5.42037254       3.88032703       4.56844624
C       -5.93325107       2.67019890       4.12821133
Br      -7.68099928       2.15144065       4.62219878
C       -5.16330274       1.83429840       3.32177879
C       -3.86034274       2.21381936       2.94951490
C       -3.06972425       1.38571364       2.13817130
H       -0.34003403       3.37302389       2.01778521
H       -5.99804928       4.54981586       5.19691145
H       -5.57436222       0.88614069       2.98095920
H       -3.45433149       0.43268730       1.78283748
C        1.78796962      -1.78796962       1.78796962
C        1.47621217      -3.11567815       2.00354238
N        2.21899874      -3.94518425       2.77422138
C        3.32891198      -3.45209837       3.36852198
C        4.13805672      -4.25545609       4.17579685
F        3.81431355      -5.54454367       4.37082958
C        5.28883236      -3.77759444       4.80271900
C        5.65454013      -2.45253271       4.62458848
Br       7.20869450      -1.78258651       5.46335770
C        4.87895869      -1.61223260       3.82818864
C        3.71970794      -2.10398392       3.19998515
C        2.92588584      -1.27337950       2.39434384
H        0.59909771      -3.57533961       1.55640581
H        5.87435113      -4.45320777       5.41721771
H        5.17392087      -0.57340753       3.69413371
H        3.19623954      -0.23112532       2.24249140
C       -0.00445707       0.01189536      -1.78238275
H       -0.66409135       0.67374010      -2.43557963
H        0.65740317      -0.63156657      -2.45157240
C       -0.90989263      -0.90692880      -0.91072765
C        0.90977584       0.90977584      -0.90977584
C       -0.00465871       1.77757030       0.00794375
H       -0.66225468       2.44313916      -0.64384735
H        0.64322798       2.43503045       0.67728295
C       -1.78241447       0.00034974      -0.00472694
H       -2.45427497      -0.65498947       0.64260836
H       -2.43311707       0.67328779      -0.65473579
C       -0.91132561       0.90220522       0.91563759
C       -0.01476271      -0.02253852       1.78660255
H       -0.67934791      -0.69751639       2.42135241
H        0.63392994       0.61504881       2.47327442
C        0.01484550      -1.77751727      -0.01636693
H        0.67870853      -2.42144646      -0.68295456
H       -0.62264859      -2.45592969       0.64226336
C        1.78714474       0.01002794       0.00389507
H        2.44202412       0.67113390       0.66197326
H        2.45385902      -0.65136977      -0.64189061
C        0.91606151      -0.90478549       0.90901405
