126
Properties=species:S:1:pos:R:3 pbc="F F F"
C        1.77559100       1.77559100      -1.77559100
C        1.31857583       3.11138430      -2.08434972
C        2.04027511       3.91526639      -2.87636859
C        3.32637769       3.44298794      -3.45871312
O        3.95054748       4.17390446      -4.22276412
N        3.73273008       2.16285966      -3.07872434
C        4.99914648       1.63825851      -3.59898889
C        4.79915727       0.73480406      -4.81308347
N        6.04501077       0.18595771      -5.31539040
N        6.18042380      -1.15191911      -5.44381786
C        7.39739453      -1.29835868      -5.98162839
C        8.02962307      -0.06439975      -6.17167993
C        7.14018483       0.88335545      -5.74355361
C        2.94954526       1.35433919      -2.26536045
H        0.38167123       3.45878152      -1.66032889
H        1.73225384       4.92256551      -3.12688053
H        5.51339579       1.10280499      -2.79110681
H        5.64699279       2.48198191      -3.86629633
H        4.32584007       1.27167945      -5.64214775
H        4.14804466      -0.10867662      -4.55179574
H        7.75818283      -2.29278789      -6.20759821
H        7.18821078       1.96288360      -5.71128829
H        3.33170361       0.35896849      -2.05082829
C        9.34694378       0.13203657      -6.71910931
C       10.45019987       0.29655199      -7.17758142
Br      12.23407166       0.56255950      -7.91889204
C       -1.77559100      -1.77559100      -1.77559100
C       -1.52446637      -3.19869782      -1.79114567
C       -2.25026556      -4.01290683      -2.56873769
C       -3.32725991      -3.46348800      -3.43733083
O       -3.94939674      -4.21653596      -4.18128336
N       -3.54993466      -2.08937466      -3.33500477
C       -4.60780780      -1.48093373      -4.14765235
C       -4.06713483      -0.85113437      -5.42877560
N       -5.10338887      -0.21901925      -6.22395078
N       -4.97527473       1.07885005      -6.57589787
C       -6.05034087       1.30907436      -7.33939772
C       -6.85765934       0.17137788      -7.45062180
C       -6.22823357      -0.80776986      -6.73109046
C       -2.76677444      -1.27614393      -2.52632652
H       -0.74046385      -3.60223400      -1.15808379
H       -2.09379734      -5.08367431      -2.60422823
H       -5.13395357      -0.73743924      -3.53591477
H       -5.34851419      -2.25083080      -4.39592604
H       -3.57781931      -1.59361041      -6.06823755
H       -3.32238474      -0.08304939      -5.18572965
H       -6.18818360       2.28976019      -7.77456974
H       -6.47367625      -1.84398959      -6.54471683
H       -2.99199174      -0.21219454      -2.53731412
C       -8.09038354       0.08181294      -8.18951906
C       -9.12279006       0.00680230      -8.80834551
Br     -10.79210409      -0.11448357      -9.80893555
C       -1.77559100       1.77559100       1.77559100
C       -3.16531369       1.41299298       1.93600319
C       -3.98832423       2.16818150       2.67540436
C       -3.48552859       3.40085594       3.34169421
O       -4.26425067       4.10872154       3.97424385
N       -2.12346091       3.66375253       3.18710064
C       -1.55390311       4.85146084       3.83102993
C       -1.44022582       6.03417788       2.87264110
N       -0.84828819       7.20458910       3.49348160
N        0.23957147       7.77772091       2.93417311
C        0.47280640       8.84273423       3.71073641
C       -0.44855230       8.92767638       4.76067457
C       -1.29860334       7.86718210       4.60130846
C       -1.30502287       2.86320447       2.40101755
H       -3.53446434       0.51417330       1.45214399
H       -5.03363427       1.92670801       2.82135759
H       -0.57360741       4.58690053       4.24679965
H       -2.18396280       5.12523437       4.68607386
H       -2.41939573       6.33520998       2.48506155
H       -0.81419751       5.76377109       2.01319517
H        1.29798145       9.49984509       3.47112950
H       -2.16279692       7.53821000       5.16137575
H       -0.26429025       3.16594521       2.31126493
C       -0.47357949       9.94490171       5.77960846
C       -0.49453976      10.79682793       6.63296559
Br      -0.52843074      12.17432057       8.01277189
C        1.77559100      -1.77559100       1.77559100
C        3.17424721      -1.43549597       1.90456668
C        3.99694895      -2.19219833       2.64276281
C        3.48442632      -3.40344986       3.34020257
O        4.26175712      -4.11394661       3.97151233
N        2.11530085      -3.64427438       3.21473885
C        1.53643381      -4.80976043       3.89019963
C        1.38427854      -6.00712941       2.95563685
N        0.78292811      -7.15532937       3.60810141
N       -0.32496645      -7.71849156       3.07879744
C       -0.56302080      -8.76506592       3.87861911
C        0.37559816      -8.84798504       4.91332005
C        1.24140084      -7.80612146       4.71957159
C        1.29713140      -2.84314321       2.42897028
H        3.55052546      -0.55230784       1.39794834
H        5.04888026      -1.96718947       2.76563015
H        0.56873004      -4.52005784       4.31851971
H        2.17693815      -5.07963507       4.73869780
H        2.35071826      -6.33276852       2.55618049
H        0.74766424      -5.74077220       2.10272734
H       -1.40400623      -9.41124775       3.66575162
H        2.12135906      -7.48296284       5.25806076
H        0.24970383      -3.12847983       2.36331673
C        0.40097813      -9.84715421       5.94995732
C        0.42223386     -10.68395839       6.81814103
Br       0.45660256     -12.03699997       8.22192067
C       -0.00445707       0.01189536      -1.78238275
H       -0.66409135       0.67374010      -2.43557963
H        0.65740317      -0.63156657      -2.45157240
C       -0.90989263      -0.90692880      -0.91072765
C        0.90977584       0.90977584      -0.90977584
C       -0.00465871       1.77757030       0.00794375
H       -0.66225468       2.44313916      -0.64384735
H        0.64322798       2.43503045       0.67728295
C       -1.78241447       0.00034974      -0.00472694
H       -2.45427497      -0.65498947       0.64260836
H       -2.43311707       0.67328779      -0.65473579
C       -0.91132561       0.90220522       0.91563759
C       -0.01476271      -0.02253852       1.78660255
H       -0.67934791      -0.69751639       2.42135241
H        0.63392994       0.61504881       2.47327442
C        0.01484550      -1.77751727      -0.01636693
H        0.67870853      -2.42144646      -0.68295456
H       -0.62264859      -2.45592969       0.64226336
C        1.78714474       0.01002794       0.00389507
H        2.44202412       0.67113390       0.66197326
H        2.45385902      -0.65136977      -0.64189061
C        0.91606151      -0.90478549       0.90901405
