97
Properties=species:S:1:pos:R:3 pbc="F F F"
C        0.00000000       0.00000000       0.00000000
C        0.86568697       0.86568697      -0.86568697
C        0.40867181       2.20148027      -1.17444570
C        1.13037109       3.00536236      -1.96646457
C        2.41647366       2.53308391      -2.54880909
O        3.04064345       3.26400043      -3.31286010
N        2.82282606       1.25295564      -2.16882032
C        4.08924245       0.72835449      -2.68908486
C        3.88925325      -0.17509996      -3.90317944
N        5.13510675      -0.72394631      -4.40548638
N        5.27051977      -2.06182313      -4.53391384
C        6.48749050      -2.20826270      -5.07172437
C        7.11971904      -0.97430377      -5.26177591
Br       8.82545363      -0.71994793      -5.97061562
C        6.23028080      -0.02654857      -4.83364959
C        2.03964123       0.44443516      -1.35545642
H       -0.52823280       2.54887749      -0.75042487
H        0.82234981       4.01266149      -2.21697650
H        4.60349176       0.19290096      -1.88120279
H        4.73708876       1.57207788      -2.95639231
H        3.41593604       0.36177543      -4.73224372
H        3.23814064      -1.01858065      -3.64189171
H        6.84827880      -3.20269192      -5.29769419
H        6.27830675       1.05297957      -4.80138427
H        2.42179959      -0.55093553      -1.14092426
C       -0.86568697      -0.86568697      -0.86568697
C       -0.61151890      -2.28820909      -0.88486979
C       -1.33723913      -3.10230565      -1.66265323
C       -2.41729982      -2.55334524      -2.52772161
O       -3.03941755      -3.30612909      -3.27195735
N       -2.64272406      -1.17994240      -2.42193555
C       -3.70367003      -0.57203973      -3.23097204
C       -3.16713915       0.06169996      -4.51189354
N       -4.20647944       0.69328578      -5.30345315
N       -4.08193629       1.99218801      -5.65286220
C       -5.15915051       2.22173225      -6.41353390
C       -5.96424534       1.08253159      -6.52547743
Br      -7.56225574       0.96516819      -7.47903377
C       -5.33114472       0.10319648      -5.80943358
C       -1.85957357      -0.36676701      -1.61319223
H        0.17472519      -2.69141319      -0.25438156
H       -1.17853239      -4.17265214      -1.70080328
H       -4.23009547       0.16898743      -2.61648747
H       -4.44324578      -1.34300185      -3.47931132
H       -2.67760608      -0.67832863      -5.15402048
H       -2.42352712       0.83087007      -4.26879465
H       -5.30005729       3.20305600      -6.84627977
H       -5.57394076      -0.93395361      -5.62477623
H       -2.08711508       0.69671293      -1.62138617
C       -0.86568697       0.86568697       0.86568697
C       -2.27966017       0.57416898       0.93076863
C       -3.10157251       1.33403609       1.66658941
C       -2.57202328       2.49890348       2.42743991
O       -3.34627277       3.21480382       3.05642740
N       -1.19128387       2.69227455       2.36104359
C       -0.59631650       3.80973433       3.10063098
C       -0.36553395       5.03370846       2.21809032
N        0.25212524       6.13389366       2.93487840
N        1.39896382       6.67371105       2.46786325
C        1.64456685       7.68076500       3.31475402
C        0.67119365       7.76136573       4.31701911
Br       0.63476492       9.00577554       5.70511070
C       -0.22400312       6.76066778       4.05271092
C       -0.37371781       1.88994133       1.57587368
H       -2.66842246      -0.27517088       0.37781799
H       -4.16488062       1.14457891       1.74252827
H        0.34334869       3.46831749       3.55262672
H       -1.25815492       4.07255263       3.93485140
H       -1.30371924       5.40991473       1.79632123
H        0.29271428       4.77471008       1.37945590
H        2.51593740       8.30205329       3.15716518
H       -1.13483516       6.45158492       4.54625051
H        0.68512734       2.13773211       1.55918355
C        0.86568697      -0.86568697       0.86568697
C        2.29645979      -0.66710849       0.82102950
C        3.11647490      -1.43270529       1.55301783
C        2.56686527      -2.50839181       2.42310959
O        3.33497369      -3.23375975       3.04877054
N        1.17532030      -2.61158241       2.45769930
C        0.56214182      -3.63698229       3.30755769
C        0.19490414      -4.89602438       2.52640421
N       -0.44131712      -5.90413311       3.35383082
N       -1.64909595      -6.39353924       2.99816719
C       -1.90014328      -7.32587510       3.92522034
C       -0.86817324      -7.40849735       4.86686707
Br      -0.81679337      -8.56193979       6.33097490
C        0.06873541      -6.48954593       4.47910049
C        0.35898298      -1.80712815       1.67342169
H        2.69995980       0.11714194       0.18825171
H        4.19235735      -1.31129736       1.54833310
H       -0.32117941      -3.20469299       3.79408194
H        1.26097531      -3.89058709       4.11399656
H        1.07659289      -5.36093499       2.07242731
H       -0.50089608      -4.64674631       1.71560147
H       -2.81784555      -7.89543532       3.86569130
H        1.02868569      -6.21220376       4.89178115
H       -0.71214192      -1.98316139       1.74076885
