118
Properties=species:S:1:pos:R:3 pbc="F F F"
C        1.46359920       6.00401351      -3.02213290
O        2.41022497       5.39248833      -2.13740168
C        2.51665365       4.04537244      -2.38991730
C        1.75279268       3.18744651      -1.60430518
O        0.95403890       3.72664306      -0.62705636
C        1.80643094       1.80643094      -1.80643094
C        2.66159545       1.25005271      -2.79861553
C        2.75415675      -0.14367941      -3.04767575
C        3.60495858      -0.67545134      -4.01561967
C        4.39673845       0.17153838      -4.76813174
C        4.33197586       1.54757109      -4.55191925
C        3.47691004       2.12577369      -3.57804565
C        3.39509257       3.52858826      -3.34925923
H        0.62238784       6.37187798      -2.42633894
H        1.07975247       5.33184629      -3.79950454
H        1.94516629       6.86087528      -3.50299669
H        1.20339431       4.66748547      -0.55538220
H        2.15492314      -0.85405419      -2.48148611
H        3.64607963      -1.74987676      -4.17409677
H        5.06560387      -0.23064988      -5.52445544
H        4.97539584       2.16822466      -5.17254480
C        4.21843232       4.45596442      -4.08116434
C        4.90797937       5.23264196      -4.69413488
Br       6.02291861       6.48846386      -5.68525639
C       -5.07830391      -0.84930402      -4.56213767
O       -3.75930811      -1.32645665      -4.85435021
C       -3.21856757      -1.96799104      -3.76538477
C       -2.38815173      -1.22238560      -2.93400703
O       -2.15028937       0.09201969      -3.24946863
C       -1.80643094      -1.80643094      -1.80643094
C       -2.02929558      -3.17869621      -1.50227190
C       -1.46573697      -3.82215553      -0.37026059
C       -1.68372152      -5.17049114      -0.09091424
C       -2.47342115      -5.92425366      -0.93873376
C       -3.04489770      -5.32559256      -2.06097593
C       -2.84793176      -3.95612969      -2.37666793
C       -3.42889782      -3.32893861      -3.51510362
H       -5.06555064       0.24448293      -4.59953706
H       -5.46134978      -1.16569019      -3.58406333
H       -5.75623341      -1.21213275      -5.34067210
H       -2.50863245       0.22920723      -4.14683676
H       -0.83431505      -3.27531455       0.32727453
H       -1.23230468      -5.62503684       0.78704187
H       -2.64945404      -6.97682307      -0.73313233
H       -3.65834851      -5.96423284      -2.69358396
C       -4.23452849      -4.07148880      -4.44954380
C       -4.90924418      -4.69337459      -5.23213744
Br      -6.00020238      -5.69891131      -6.49752518
C       -5.05665256       0.84643918       4.58665386
O       -3.73878876       1.33291937       4.86840686
C       -3.20811298       1.97121945       3.77261096
C       -2.37819689       1.22560554       2.94074194
O       -2.13085630      -0.08553930       3.26242131
C       -1.80643094       1.80643094       1.80643094
C       -2.03904597       3.17558655       1.49563117
C       -1.48581348       3.81569287       0.35664674
C       -1.71326542       5.16109248       0.07076901
C       -2.50241896       5.91519486       0.91879475
C       -3.06388675       5.31978246       2.04779698
C       -2.85711906       3.95334632       2.37026400
C       -3.42781599       3.32944429       3.51567978
H       -5.03730978      -0.24701905       4.63031404
H       -5.44719504       1.15489662       3.60901163
H       -5.73216322       1.20986475       5.36701029
H       -2.48318943      -0.21956933       4.16264188
H       -0.85526739       3.26846380      -0.34137613
H       -1.26959840       5.61312224      -0.81242099
H       -2.68577008       6.96551098       0.70812838
H       -3.67737335       5.95853351       2.68025844
C       -4.23233290       4.07274716       4.45048103
C       -4.90611582       4.69526331       5.23337708
Br      -5.99556580       5.70181928       6.49925378
C        1.42038190      -5.98026553       3.08909818
O        2.36262049      -5.39582748       2.18166701
C        2.49244581      -4.04689255       2.41260502
C        1.72963639      -3.18930470       1.62560328
O        0.90869400      -3.73081869       0.66822563
C        1.80643094      -1.80643094       1.80643094
C        2.68424419      -1.24835701       2.77766248
C        2.80083482       0.14733914       3.00465741
C        3.67356761       0.68052270       3.95208200
C        4.46395899      -0.16702863       4.70542095
C        4.37590647      -1.54496148       4.51059824
C        3.49814454      -2.12458905       3.55799578
C        3.39246328      -3.52922881       3.35124797
H        0.56514802      -6.34428348       2.51117327
H        1.05795932      -5.29119942       3.86194456
H        1.89645682      -6.83705630       3.57552514
H        1.14319058      -4.67620047       0.60687094
H        2.20371440       0.85817250       2.43681317
H        3.73272246       1.75642069       4.09399788
H        5.14976514       0.23620513       5.44584943
H        5.01932111      -2.16595293       5.13089126
C        4.21292808      -4.45791799       4.08471502
C        4.90006736      -5.23569517       4.69899368
Br       6.01111345      -6.49329510       5.69223031
C       -0.00445707       0.01189536      -1.78238275
H       -0.66409135       0.67374010      -2.43557963
H        0.65740317      -0.63156657      -2.45157240
C       -0.90989263      -0.90692880      -0.91072765
C        0.90977584       0.90977584      -0.90977584
C       -0.00465871       1.77757030       0.00794375
H       -0.66225468       2.44313916      -0.64384735
H        0.64322798       2.43503045       0.67728295
C       -1.78241447       0.00034974      -0.00472694
H       -2.45427497      -0.65498947       0.64260836
H       -2.43311707       0.67328779      -0.65473579
C       -0.91132561       0.90220522       0.91563759
C       -0.01476271      -0.02253852       1.78660255
H       -0.67934791      -0.69751639       2.42135241
H        0.63392994       0.61504881       2.47327442
C        0.01484550      -1.77751727      -0.01636693
H        0.67870853      -2.42144646      -0.68295456
H       -0.62264859      -2.45592969       0.64226336
C        1.78714474       0.01002794       0.00389507
H        2.44202412       0.67113390       0.66197326
H        2.45385902      -0.65136977      -0.64189061
C        0.91606151      -0.90478549       0.90901405
