114
Properties=species:S:1:pos:R:3 pbc="F F F"
C        1.78771923       1.78771923      -1.78771923
C        2.33680192       1.29553584      -2.96262888
C        3.13111746       2.13417460      -3.74767377
C        3.34940840       3.44013897      -3.32798222
N        2.83399485       3.93076606      -2.17908571
C        2.06137520       3.09842002      -1.43775889
N        4.11622690       4.37434842      -4.02463903
C        4.68103788       4.24519704      -5.27064060
O        4.57580953       3.28471729      -6.02320072
C        5.45340250       5.42059327      -5.73743422
C        5.47076958       5.71089051      -7.09756200
N        6.13377071       6.76548810      -7.63528640
C        6.82627810       7.54930623      -6.77476533
C        6.88369813       7.32200496      -5.40703217
Br       7.89161592       8.45348260      -4.28562794
C        6.18799490       6.23954748      -4.87512465
H        2.15764032       0.27226643      -3.28081789
H        3.56026388       1.74259196      -4.66246389
H        1.65961356       3.53811365      -0.52937395
H        4.14642029       5.26021859      -3.53878298
H        4.93150426       5.09548311      -7.81424619
H        7.34982484       8.38248684      -7.23669080
H        6.24515195       6.02774377      -3.81202745
C       -1.78771923      -1.78771923      -1.78771923
C       -1.81387090      -3.16406591      -1.61702983
C       -2.63921258      -3.93715930      -2.43659395
C       -3.41168349      -3.30399338      -3.40185273
N       -3.38696012      -1.96607925      -3.59080725
C       -2.58202152      -1.23720194      -2.77833065
N       -4.27793348      -3.96234841      -4.27493245
C       -4.62753507      -5.29125029      -4.27809017
O       -4.26630417      -6.14242455      -3.47499882
C       -5.57033513      -5.69239088      -5.34870399
C       -6.48531419      -6.70675165      -5.08715625
N       -7.40054106      -7.14731677      -5.98668739
C       -7.38272685      -6.56041701      -7.20720579
C       -6.49144936      -5.55812940      -7.56315650
Br      -6.52414487      -4.81238825      -9.29419333
C       -5.56686329      -5.11438930      -6.62141444
H       -1.20575554      -3.64749119      -0.85747790
H       -2.65232949      -5.01220717      -2.30078307
H       -2.60239651      -0.16620674      -2.95849791
H       -4.73696214      -3.31130174      -4.89715798
H       -6.51864165      -7.20286872      -4.11972320
H       -8.12460235      -6.93824057      -7.90615956
H       -4.84191434      -4.35256532      -6.89044351
C       -1.78771923       1.78771923       1.78771923
C       -1.66626864       3.16924014       1.75945786
C       -2.49592842       3.94339442       2.57364299
C       -3.42079976       3.30598441       3.39074542
N       -3.54194645       1.96094475       3.44095542
C       -2.72906233       1.23202461       2.63646717
N       -4.30733384       3.96575329       4.24212722
C       -4.52868786       5.31758417       4.35060349
O       -4.00733478       6.19836471       3.67802805
C       -5.53578395       5.71205004       5.36359600
C       -6.31899486       6.83619855       5.12402869
N       -7.27727847       7.28293763       5.97432911
C       -7.44188599       6.58507822       7.12338545
C       -6.69082759       5.46646132       7.45544634
Br      -6.97351684       4.56852158       9.08868802
C       -5.71918447       5.01957910       6.56390346
H       -0.93962765       3.65612384       1.11497314
H       -2.39356850       5.02195746       2.54979377
H       -2.86881627       0.15678260       2.70150228
H       -4.88785678       3.31032433       4.74724075
H       -6.20462653       7.42195933       4.21464770
H       -8.21357151       6.97054474       7.78488622
H       -5.10112540       4.16453608       6.81926169
C        1.78771923      -1.78771923       1.78771923
C        2.63749450      -1.22738525       2.73008688
C        3.42252358      -2.06602070       3.52442156
C        3.32990348      -3.44054168       3.34708443
N        2.51813895      -4.00183415       2.42387352
C        1.76183559      -3.16634891       1.66936961
N        4.05454122      -4.38061615       4.08005698
C        4.87316932      -4.16188410       5.16182210
O        5.08444642      -3.08794739       5.71133373
C        5.51633713      -5.37424967       5.72084319
C        5.75965504      -5.43045524       7.08911181
N        6.33183793      -6.49227559       7.71043170
C        6.69496006      -7.53257845       6.92281114
C        6.51173610      -7.55355913       5.54744003
Br       7.06831452      -9.03675443       4.52565750
C        5.91383231      -6.45726835       4.93156637
H        2.70007250      -0.15053787       2.86011427
H        4.08713253      -1.62199822       4.25618897
H        1.11690238      -3.66126399       0.94893479
H        3.83727851      -5.32278547       3.78535788
H        5.48715112      -4.60770665       7.74637580
H        7.15426872      -8.36521056       7.44952321
H        5.78937917      -6.44221142       3.85333258
C       -0.00445707       0.01189536      -1.78238275
H       -0.66409135       0.67374010      -2.43557963
H        0.65740317      -0.63156657      -2.45157240
C       -0.90989263      -0.90692880      -0.91072765
C        0.90977584       0.90977584      -0.90977584
C       -0.00465871       1.77757030       0.00794375
H       -0.66225468       2.44313916      -0.64384735
H        0.64322798       2.43503045       0.67728295
C       -1.78241447       0.00034974      -0.00472694
H       -2.45427497      -0.65498947       0.64260836
H       -2.43311707       0.67328779      -0.65473579
C       -0.91132561       0.90220522       0.91563759
C       -0.01476271      -0.02253852       1.78660255
H       -0.67934791      -0.69751639       2.42135241
H        0.63392994       0.61504881       2.47327442
C        0.01484550      -1.77751727      -0.01636693
H        0.67870853      -2.42144646      -0.68295456
H       -0.62264859      -2.45592969       0.64226336
C        1.78714474       0.01002794       0.00389507
H        2.44202412       0.67113390       0.66197326
H        2.45385902      -0.65136977      -0.64189061
C        0.91606151      -0.90478549       0.90901405
