170
Properties=species:S:1:pos:R:3 pbc="F F F"
C        1.79139892       1.79139892      -1.79139892
C        3.16216611       1.55362158      -1.85590100
C        3.96810652       2.35829332      -2.66632123
C        3.40692418       3.40209544      -3.41931631
C        2.02836994       3.64111118      -3.32448967
C        1.22074326       2.83233506      -2.52001546
N        4.23534688       4.24399815      -4.22873470
C        5.10390840       3.73849425      -5.21402738
S        4.93047780       2.04908219      -5.70582697
C        4.58878034       2.28873987      -7.47509928
C        3.34886529       3.10927554      -7.74077980
C        2.07319318       2.52997153      -7.68032037
C        0.93100879       3.30410049      -7.90155435
C        1.04839737       4.66850589      -8.16681125
C        2.31098823       5.25113404      -8.22383143
Br       2.48327334       7.10489941      -8.54875124
C        3.45505459       4.47915653      -8.02897074
N        5.99367679       4.41198104      -5.88361299
C        6.00940554       5.77831211      -5.61745933
C        6.85971442       6.69379167      -6.27482897
C        6.61400761       7.98424194      -5.84889687
S        5.36201987       8.04800992      -4.67020508
C        5.15035434       6.36608314      -4.74020165
C        4.19169480       5.62855651      -3.96683675
O        3.44590943       6.15730573      -3.14380382
H        3.61463139       0.75327037      -1.27584330
H        5.04050546       2.17558255      -2.67756887
H        1.56645421       4.45135631      -3.88520782
H        0.15312556       3.02844909      -2.46633622
H        4.46522022       1.29944660      -7.93098881
H        5.46115216       2.73621608      -7.96438926
H        1.96040108       1.46929903      -7.46219375
H       -0.05320195       2.84300983      -7.86295148
H        0.15430685       5.26494440      -8.32788380
H        4.43540394       4.94673248      -8.09293353
H        7.59986837       6.43493120      -7.02103464
H        7.10018442       8.89508248      -6.17138917
C       -1.79139892      -1.79139892      -1.79139892
C       -1.23006226      -2.47350201      -2.86812442
C       -2.03672961      -3.28368987      -3.67230159
C       -3.40778799      -3.41904020      -3.40150776
C       -3.95997825      -2.70704705      -2.32694547
C       -3.15263997      -1.90248066      -1.51797315
N       -4.24016753      -4.22719377      -4.24071844
C       -3.96176407      -5.57911619      -4.51554978
S       -2.74203817      -6.40536625      -3.53798255
C       -3.76809142      -7.73743419      -2.84709387
C       -4.93460329      -7.23389535      -2.03042199
C       -4.76077130      -6.82123044      -0.70148335
C       -5.84161938      -6.33186746       0.03682322
C       -7.10359924      -6.23125338      -0.54886189
C       -7.28255190      -6.63466077      -1.86874104
Br      -8.97910911      -6.47234383      -2.68547105
C       -6.21382447      -7.14712421      -2.60223318
N       -4.57354962      -6.33755959      -5.37816160
C       -5.64838165      -5.73286137      -6.02393396
C       -6.47653828      -6.39731201      -6.95448476
C       -7.49278658      -5.56799335      -7.38636649
S       -7.41469159      -4.01406429      -6.65147898
C       -6.03979821      -4.45588907      -5.76095185
C       -5.34908798      -3.59687361      -4.84112647
O       -5.67986147      -2.42971641      -4.63744111
H       -0.17152322      -2.37643998      -3.09578185
H       -1.58443613      -3.78230862      -4.52691214
H       -5.02184576      -2.78068473      -2.10048786
H       -3.59792503      -1.36519891      -0.68478694
H       -3.12853850      -8.35826191      -2.20885523
H       -4.11456368      -8.39482907      -3.65236475
H       -3.78083944      -6.88028685      -0.23076757
H       -5.69849215      -6.02441051       1.07014329
H       -7.93643470      -5.84031046       0.02961010
H       -6.37402255      -7.47325006      -3.62779734
H       -6.35059516      -7.42036742      -7.28487164
H       -8.28131396      -5.79383866      -8.09150345
C       -1.79139892       1.79139892       1.79139892
C       -3.17239636       1.61101717       1.78827515
C       -3.97858463       2.41550441       2.59863203
C       -3.40766482       3.40158747       3.41908365
C       -2.01752317       3.58413102       3.39231659
C       -1.21008162       2.77522554       2.58778663
N       -4.23469837       4.24425815       4.22912321
C       -5.16563832       3.73638462       5.15440709
S       -5.08437363       2.02198853       5.57902481
C       -4.81029884       2.17256187       7.36975877
C       -3.54998351       2.92656831       7.72236881
C       -2.29815648       2.29532394       7.69000467
C       -1.13539508       3.00911449       7.99215406
C       -1.20721800       4.36508670       8.31140981
C       -2.44569928       4.99922332       8.34103112
Br      -2.55450903       6.84356688       8.73884809
C       -3.61139723       4.28656243       8.06522220
N       -6.05484374       4.41944623       5.81498085
C       -6.00198542       5.79507639       5.60811517
C       -6.84118035       6.71848303       6.26867166
C       -6.52357276       8.01365596       5.90991771
S       -5.21990771       8.07197544       4.78835171
C       -5.08180943       6.38097630       4.79385339
C       -4.12199231       5.63532087       4.02977489
O       -3.31969719       6.16497420       3.26234759
H       -3.63217075       0.85599978       1.15557452
H       -5.05714246       2.27932544       2.55718899
H       -1.54706133       4.34941953       4.00653748
H       -0.13389089       2.92676087       2.58725912
H       -4.74805628       1.16067946       7.78691989
H       -5.68371785       2.63678506       7.84125460
H       -2.22030704       1.24076713       7.43081969
H       -0.17052120       2.50764095       7.97459722
H       -0.29689102       4.91481512       8.53542892
H       -4.57324991       4.79328392       8.10853612
H       -7.62325656       6.46118643       6.97139123
H       -6.98491787       8.93055010       6.25118810
C        1.79139892      -1.79139892       1.79139892
C        1.20531685      -2.63007759       2.73629424
C        2.01257883      -3.43997498       3.54016726
C        3.40953197      -3.41828461       3.40051936
C        3.98327757      -2.55108123       2.45961198
C        3.17637702      -1.74631975       1.65039702
N        4.23878058      -4.22737625       4.24192291
C        4.07662020      -5.62044728       4.35936256
S        3.04493415      -6.45179335       3.18865946
C        4.26259570      -7.60414576       2.48587803
C        5.44211866      -6.91263846       1.84416352
C        5.35141459      -6.38337720       0.54869329
C        6.44025587      -5.72196380      -0.02555604
C        7.62502951      -5.56493752       0.69374747
C        7.72069640      -6.08362088       1.98163643
Br       9.30793777      -5.84874998       2.98023625
C        6.64668530      -6.76628493       2.55021163
N        4.68011362      -6.40329015       5.20586705
C        5.62205786      -5.77070338       6.01241573
C        6.42381360      -6.44728180       6.95723964
C        7.30456407      -5.57569614       7.56688621
S        7.13578687      -3.96846023       6.97598777
C        5.90274659      -4.44253719       5.91135534
C        5.21607544      -3.56156715       5.00944547
O        5.44248430      -2.35391082       4.95062386
H        0.12581768      -2.65610185       2.86182553
H        1.53630664      -4.06391414       4.29343611
H        5.06354967      -2.50167282       2.33779586
H        3.63973076      -1.08695142       0.92122870
H        3.75266905      -8.21289118       1.73009540
H        4.59829238      -8.30575733       3.25770779
H        4.43095582      -6.48478293      -0.02384488
H        6.36322286      -5.32445963      -1.03492313
H        8.46348939      -5.04057151       0.24307416
H        6.74326876      -7.17988675       3.55191444
H        6.37360014      -7.50617582       7.17605826
H        8.04294282      -5.79841129       8.32530196
C       -0.00445707       0.01189536      -1.78238275
H       -0.66409135       0.67374010      -2.43557963
H        0.65740317      -0.63156657      -2.45157240
C       -0.90989263      -0.90692880      -0.91072765
C        0.90977584       0.90977584      -0.90977584
C       -0.00465871       1.77757030       0.00794375
H       -0.66225468       2.44313916      -0.64384735
H        0.64322798       2.43503045       0.67728295
C       -1.78241447       0.00034974      -0.00472694
H       -2.45427497      -0.65498947       0.64260836
H       -2.43311707       0.67328779      -0.65473579
C       -0.91132561       0.90220522       0.91563759
C       -0.01476271      -0.02253852       1.78660255
H       -0.67934791      -0.69751639       2.42135241
H        0.63392994       0.61504881       2.47327442
C        0.01484550      -1.77751727      -0.01636693
H        0.67870853      -2.42144646      -0.68295456
H       -0.62264859      -2.45592969       0.64226336
C        1.78714474       0.01002794       0.00389507
H        2.44202412       0.67113390       0.66197326
H        2.45385902      -0.65136977      -0.64189061
C        0.91606151      -0.90478549       0.90901405
