170
Properties=species:S:1:pos:R:3 pbc="F F F"
C        1.79124775       1.79124775      -1.79124775
C        1.75952962       3.17541301      -1.63664801
C        2.55012320       3.98336408      -2.45788158
C        3.37008038       3.41124712      -3.44298077
C        3.40318452       2.01363117      -3.57173963
C        2.61361734       1.20610784      -2.75118909
C        4.15562048       4.28710277      -4.39084612
S        3.13347442       4.90279102      -5.76532611
C        2.87150295       3.39277567      -6.64570023
N        3.96535985       2.74318602      -6.92384598
C        3.79348857       1.60676657      -7.70644331
C        4.85386853       0.77363315      -8.12328038
C        4.38202298      -0.27091071      -8.89637097
S        2.67446610      -0.20514377      -9.09377804
C        2.57501526       1.20888566      -8.16339661
C        1.36061731       1.91150649      -7.86845417
O        0.25791129       1.52875299      -8.26142113
N        1.56684772       3.05282718      -7.06111083
C        0.39590053       3.79574413      -6.68787773
C       -0.51318675       4.22814943      -7.66542610
C       -1.65841446       4.95039844      -7.31009236
C       -1.90875752       5.23574336      -5.97069756
Br      -3.44733015       6.22076166      -5.48967676
C       -1.03645552       4.78917069      -4.98405657
C        0.10142721       4.06175672      -5.34332133
H        1.11637237       3.63530347      -0.88956359
H        2.50121651       5.06443439      -2.34326422
H        4.03748244       1.54354927      -4.32266716
H        2.64263883       0.12688278      -2.87315810
H        5.04128999       3.76257335      -4.76669991
H        4.53558037       5.15540423      -3.83970215
H        5.89796362       0.92143665      -7.88300513
H        4.95138895      -1.06693376      -9.35761197
H       -0.33889121       4.01828094      -8.71696985
H       -2.34552447       5.27735165      -8.08641996
H       -1.23496718       4.98951148      -3.93421705
H        0.73251794       3.67444088      -4.55009874
C       -1.79124775      -1.79124775      -1.79124775
C       -2.18401632      -3.04891214      -1.33866217
C       -2.97286701      -3.86434714      -2.15415471
C       -3.36589673      -3.42906181      -3.42934972
C       -2.97622797      -2.15125832      -3.86106903
C       -2.18830963      -1.33619345      -3.04641120
C       -4.14174202      -4.34467257      -4.34715479
S       -3.06200518      -5.52754848      -5.21203789
C       -2.20241562      -4.41965160      -6.28791163
N       -2.98255107      -3.65404842      -6.99579236
C       -2.33333740      -2.84853108      -7.92482998
C       -3.00061486      -1.95751904      -8.79264817
C       -2.09878688      -1.30006124      -9.60863512
S       -0.47796481      -1.78603439      -9.29910118
C       -0.98343700      -2.86822742      -8.09563311
C       -0.10912398      -3.70474508      -7.32670891
O        1.11444974      -3.69558608      -7.46694907
N       -0.79719010      -4.50046559      -6.38313004
C        0.00825088      -5.34326897      -5.54450429
C        0.94800835      -6.21877783      -6.10961930
C        1.73907708      -7.04172842      -5.29942500
C        1.60352548      -6.98620232      -3.91500656
Br       2.66137887      -8.10453089      -2.81995624
C        0.70018083      -6.10283999      -3.33411258
C       -0.08171890      -5.27775195      -4.14703440
H       -1.87332767      -3.40794832      -0.35996344
H       -3.25573892      -4.85355474      -1.79962146
H       -3.27493795      -1.78568724      -4.84307368
H       -1.88577404      -0.35507454      -3.40183112
H       -4.74124605      -3.76845593      -5.06086128
H       -4.86015794      -4.91956935      -3.75095946
H       -4.07035602      -1.80256806      -8.82948133
H       -2.30777722      -0.56233518     -10.37195475
H        1.07125185      -6.28041136      -7.18720007
H        2.45742936      -7.71411320      -5.76156330
H        0.60262657      -6.03800959      -2.25337833
H       -0.73437659      -4.55628248      -3.66639847
C       -1.79124775       1.79124775       1.79124775
C       -1.59449706       1.80676315       3.17033042
C       -2.41518435       2.59697620       3.97920830
C       -3.44168493       3.36917098       3.41345236
C       -3.61306264       3.35539780       2.02009489
C       -2.79307657       2.56620297       1.21163473
C       -4.38670515       4.15264463       4.29421960
S       -5.71009281       3.10935441       4.98214434
C       -6.62667070       2.77488284       3.50842532
N       -6.95760796       3.83944422       2.83533967
C       -7.76811947       3.60940387       1.72917512
C       -8.24206924       4.63073169       0.87798114
C       -9.03111032       4.10410353      -0.12773061
S       -9.17383270       2.39424743      -0.00497975
C       -8.19903798       2.36616825       1.38209130
C       -7.84602756       1.18330973       2.11124068
O       -8.21612907       0.05811042       1.77384592
N       -7.01170368       1.44856710       3.22051494
C       -6.58060868       0.31269624       3.98621746
C       -7.51637932      -0.61143024       4.47543970
C       -7.10457552      -1.72277550       5.22027631
C       -5.75019168      -1.92412785       5.47161958
Br      -5.19286986      -3.41661950       6.48685791
C       -4.80462783      -1.03691734       4.96906125
C       -5.22028721       0.06681342       4.21940462
H       -0.81458237       1.20064795       3.62600910
H       -2.26689775       2.58479941       5.05721797
H       -4.39684852       3.95223351       1.55461684
H       -2.94804113       2.55835018       0.13628840
H       -4.80512185       5.01014144       3.75529997
H       -3.82184022       4.57542369       5.13342285
H       -8.02972888       5.68558691       0.98708962
H       -9.53320737       4.63468515      -0.92582537
H       -8.57858385      -0.47514083       4.29291656
H       -7.84928815      -2.42236704       5.59132603
H       -3.74366525      -1.19774463       5.14284073
H       -4.45877327       0.70908419       3.78920010
C        1.79124775      -1.79124775       1.79124775
C        2.10517972      -1.38126236       3.08514855
C        2.92944070      -2.17762058       3.88430758
C        3.45014130      -3.38382728       3.39033969
C        3.10786830      -3.78993578       2.09075124
C        2.28412566      -2.99463599       1.29215263
C        4.41351420      -4.20029981       4.21975537
S        6.11544494      -3.56207936       4.12406725
C        6.49545139      -3.96812426       2.44640321
N        6.27838474      -5.21485371       2.13915340
C        6.66822294      -5.58242864       0.85604688
C        6.52674107      -6.88726851       0.33677249
C        7.00932175      -6.95517557      -0.95701408
S        7.61956658      -5.44006099      -1.49652718
C        7.24912741      -4.70990090      -0.01173078
C        7.49679502      -3.33470257       0.30908037
O        7.99633760      -2.54383858      -0.49209077
N        7.07767331      -2.98940439       1.61370803
C        7.25631668      -1.61901823       2.00418748
C        8.50852063      -0.99968366       1.87218449
C        8.69071423       0.33642326       2.24778536
C        7.61668134       1.06722989       2.74823196
Br       7.86287457       2.86693563       3.26716933
C        6.36036338       0.48112730       2.85753566
C        6.18185338      -0.85076210       2.47388978
H        1.72379873      -0.44076298       3.47667771
H        3.18601118      -1.83729959       4.88560436
H        3.49158800      -4.72600453       1.68610634
H        2.03963679      -3.31868976       0.28435316
H        4.37613879      -5.25815086       3.93627361
H        4.09906524      -4.16222397       5.26939755
H        6.10497567      -7.73005304       0.86737670
H        7.03789002      -7.81598817      -1.61181104
H        9.36162971      -1.54968197       1.48504791
H        9.67150899       0.79243707       2.13917521
H        5.51152109       1.05046615       3.22770641
H        5.17945220      -1.26445477       2.51315059
C       -0.00445707       0.01189536      -1.78238275
H       -0.66409135       0.67374010      -2.43557963
H        0.65740317      -0.63156657      -2.45157240
C       -0.90989263      -0.90692880      -0.91072765
C        0.90977584       0.90977584      -0.90977584
C       -0.00465871       1.77757030       0.00794375
H       -0.66225468       2.44313916      -0.64384735
H        0.64322798       2.43503045       0.67728295
C       -1.78241447       0.00034974      -0.00472694
H       -2.45427497      -0.65498947       0.64260836
H       -2.43311707       0.67328779      -0.65473579
C       -0.91132561       0.90220522       0.91563759
C       -0.01476271      -0.02253852       1.78660255
H       -0.67934791      -0.69751639       2.42135241
H        0.63392994       0.61504881       2.47327442
C        0.01484550      -1.77751727      -0.01636693
H        0.67870853      -2.42144646      -0.68295456
H       -0.62264859      -2.45592969       0.64226336
C        1.78714474       0.01002794       0.00389507
H        2.44202412       0.67113390       0.66197326
H        2.45385902      -0.65136977      -0.64189061
C        0.91606151      -0.90478549       0.90901405
