170
Properties=species:S:1:pos:R:3 pbc="F F F"
C        1.79111644       1.79111644      -1.79111644
C        1.39192133       3.09080475      -2.08224579
C        2.20403584       3.89809175      -2.88340137
C        3.39472858       3.40193503      -3.43849779
C        3.79176452       2.09813405      -3.11119200
C        2.99317260       1.29524008      -2.29072949
N        4.19525608       4.23698326      -4.28811699
C        4.63246293       3.84538003      -5.56983203
S        4.02325996       2.33176095      -6.25602067
C        2.69747573       2.97068728      -7.31519073
C        1.55929525       3.60457109      -6.55600421
C        0.52873469       2.83077425      -5.99774706
C       -0.49411943       3.44078927      -5.26453638
C       -0.48818400       4.82469254      -5.07932263
Br      -1.82768008       5.63671304      -4.02278818
C        0.51857780       5.60595313      -5.63365494
C        1.52638831       4.98963881      -6.36811077
F        2.50824998       5.75092783      -6.86808206
N        5.42604975       4.51419001      -6.36045546
C        5.84314476       5.74512765      -5.85535414
C        6.73016277       6.62136685      -6.52492576
C        6.94445570       7.77003815      -5.78781208
S        6.06259216       7.75973421      -4.31169043
C        5.41660180       6.23217395      -4.65948976
C        4.53741700       5.50814009      -3.79223626
O        4.15709844       5.95565200      -2.70748782
H        0.46035419       3.49073898      -1.69543667
H        1.87602191       4.91209289      -3.08934891
H        4.73925798       1.69699550      -3.46597567
H        3.32207351       0.28883666      -2.04229035
H        2.30254135       2.12359228      -7.88769450
H        3.10886846       3.66448920      -8.05464946
H        0.52334460       1.74922080      -6.11564799
H       -1.27702959       2.82854180      -4.82374671
H        0.54983170       6.68185022      -5.48768846
H        7.18788981       6.43073937      -7.48754187
H        7.56793998       8.61491703      -6.03497840
C       -1.79111644      -1.79111644      -1.79111644
C       -1.24403074      -2.90790417      -2.41303697
C       -2.05467610      -3.71726186      -3.21359101
C       -3.40267764      -3.39411899      -3.43836477
C       -3.94079746      -2.27915600      -2.78113710
C       -3.13835442      -1.48019392      -1.96059382
N       -4.20756343      -4.21940627      -4.29338662
C       -4.96498391      -3.71340068      -5.36929039
S       -4.78371089      -2.01049934      -5.81683136
C       -3.62007629      -2.16440424      -7.19887322
C       -2.25601237      -2.66630231      -6.79755587
C       -1.28037197      -1.80143142      -6.27545261
C       -0.03686586      -2.30009872      -5.87424164
C        0.23487461      -3.66512165      -5.98558413
Br       1.88583081      -4.34743787      -5.37021409
C       -0.71575140      -4.53285450      -6.50957998
C       -1.94612710      -4.02475111      -6.91325967
F       -2.86481675      -4.87740550      -7.38503762
N       -5.77945759      -4.38741485      -6.13382277
C       -5.86260496      -5.74670980      -5.83431179
C       -6.70581838      -6.66083806      -6.50979894
C       -6.55925157      -7.93836814      -6.00468622
S       -5.40235646      -7.99772021      -4.73394013
C       -5.11702290      -6.33200880      -4.85923382
C       -4.21359852      -5.60008237      -4.02411246
O       -3.54265094      -6.13788665      -3.13970067
H       -0.19733447      -3.16384940      -2.28534596
H       -1.60745346      -4.58873967      -3.68127059
H       -4.99630341      -2.03091677      -2.87500896
H       -3.57619794      -0.62353907      -1.45346350
H       -3.50624300      -1.16754880      -7.64003634
H       -4.05167925      -2.79103127      -7.98529660
H       -1.48638253      -0.73910370      -6.16272715
H        0.70361973      -1.62245686      -5.45642178
H       -0.52971323      -5.60000785      -6.58964930
H       -7.38133362      -6.40756447      -7.31727296
H       -7.06554673      -8.83978957      -6.31249910
C       -1.79111644       1.79111644       1.79111644
C       -2.33802379       1.26897234       2.95797574
C       -3.13865425       2.07999966       3.76687505
C       -3.43866726       3.40072792       3.39576622
C       -2.85603411       3.91554959       2.22950686
C       -2.03537496       3.11405615       1.42971105
N       -4.29269777       4.20435573       4.22330283
C       -5.42314988       4.89015437       3.73437074
S       -5.93589678       4.61191043       2.06323438
C       -7.25530075       3.39726615       2.33078683
C       -6.77055557       2.07638404       2.87293093
C       -6.24270733       1.08599338       2.02855529
C       -5.76371628      -0.11472416       2.56221410
C       -5.80280091      -0.32843310       3.94146335
Br      -5.08344582      -1.91804322       4.66641854
C       -6.33127035       0.63704124       4.78987428
C       -6.81253758       1.82411577       4.24748454
F       -7.28809332       2.75930966       5.07985689
N       -6.19391722       5.70039352       4.40638448
C       -5.83943053       5.85854691       5.74564911
C       -6.51215551       6.71232567       6.65197420
C       -5.94555660       6.64646973       7.91027960
S       -4.62191380       5.55010330       7.96199970
C       -4.80667995       5.18378102       6.31780454
C       -3.96393120       4.28520695       5.58865521
O       -3.02714922       3.67879667       6.11429237
H       -2.15159761       0.24163708       3.25329515
H       -3.54690542       1.65305078       4.67750751
H       -3.00877457       4.95350611       1.93994847
H       -1.58667605       3.53404492       0.53247954
H       -7.73392378       3.21885651       1.36104786
H       -8.03249636       3.82227928       2.97323148
H       -6.18601868       1.24799076       0.95420394
H       -5.34250641      -0.86643284       1.89918535
H       -6.35606966       0.49662314       5.86667757
H       -7.35993418       7.33965184       6.40658503
H       -6.23650761       7.17948297       8.80184482
C        1.79111644      -1.79111644       1.79111644
C        2.53735174      -1.21466968       2.81295045
C        3.33786271      -2.02461406       3.62305219
C        3.43748414      -3.40611372       3.39156355
C        2.65694410      -3.97073184       2.37341461
C        1.83677973      -3.16660882       1.57575361
N        4.29382319      -4.21345992       4.21307321
C        5.26835523      -5.08819214       3.69112761
S        5.59238904      -5.06752516       1.95112739
C        7.06350001      -4.00826058       1.91159315
C        6.80361044      -2.58383573       2.33242437
C        6.28761021      -1.63583840       1.43380739
C        6.01877191      -0.33151829       1.86091602
C        6.25683908       0.02951753       3.18850962
Br       5.81928914       1.76920734       3.78173934
C        6.77677232      -0.89355026       4.08786329
C        7.04828015      -2.18569917       3.65015857
F        7.51744081      -3.07400234       4.53581672
N        6.02211139      -5.90898426       4.36959957
C        5.82534549      -5.86883573       5.74944533
C        6.50738923      -6.69365972       6.67540644
C        6.11653721      -6.41489715       7.97087158
S        4.94226267      -5.16025451       8.03149962
C        4.95643851      -5.00802834       6.34379867
C        4.13443230      -4.09746641       5.60589464
O        3.34647774      -3.32147113       6.15228940
H        2.50696446      -0.14528560       2.99427978
H        3.90413483      -1.55320817       4.42012071
H        2.65367185      -5.04564797       2.20290932
H        1.23313739      -3.62450002       0.79556311
H        7.43189079      -4.00260381       0.87933354
H        7.86323474      -4.45357989       2.51119249
H        6.07681155      -1.90932065       0.40208118
H        5.60403651       0.38813566       1.15935806
H        6.95402599      -0.63700009       5.12834429
H        7.24093225      -7.44736627       6.41787253
H        6.45662517      -6.87671454       8.88449569
C       -0.00445707       0.01189536      -1.78238275
H       -0.66409135       0.67374010      -2.43557963
H        0.65740317      -0.63156657      -2.45157240
C       -0.90989263      -0.90692880      -0.91072765
C        0.90977584       0.90977584      -0.90977584
C       -0.00465871       1.77757030       0.00794375
H       -0.66225468       2.44313916      -0.64384735
H        0.64322798       2.43503045       0.67728295
C       -1.78241447       0.00034974      -0.00472694
H       -2.45427497      -0.65498947       0.64260836
H       -2.43311707       0.67328779      -0.65473579
C       -0.91132561       0.90220522       0.91563759
C       -0.01476271      -0.02253852       1.78660255
H       -0.67934791      -0.69751639       2.42135241
H        0.63392994       0.61504881       2.47327442
C        0.01484550      -1.77751727      -0.01636693
H        0.67870853      -2.42144646      -0.68295456
H       -0.62264859      -2.45592969       0.64226336
C        1.78714474       0.01002794       0.00389507
H        2.44202412       0.67113390       0.66197326
H        2.45385902      -0.65136977      -0.64189061
C        0.91606151      -0.90478549       0.90901405
