129
Properties=species:S:1:pos:R:3 pbc="F F F"
C        0.00000000       0.00000000       0.00000000
C        0.88199251       0.88199251      -0.88199251
C        2.26716615       0.74630157      -0.82970111
C        3.07314333       1.55228232      -1.63619564
C        2.49983607       2.49537271      -2.50289093
C        1.10157465       2.61449793      -2.54620021
C        0.29475939       1.81395013      -1.73461528
C        3.38019818       3.35537895      -3.37988829
S        3.26978528       5.12442844      -3.00551970
C        3.81586177       5.08705646      -1.34105755
N        4.98862730       4.59639477      -1.09262572
C        5.42619263       4.57522407       0.23836216
C        6.69240596       4.05508967       0.51692561
C        7.17310787       4.01457960       1.82935075
C        6.38296670       4.49741843       2.87227103
Br       7.03495165       4.44336246       4.64477880
C        5.11854554       5.01957022       2.61666760
C        4.65095187       5.05354077       1.29715410
C        3.31970492       5.60069034       0.98603708
O        2.59348035       6.03024765       1.88072284
N        2.96230944       5.59124606      -0.36225628
N        1.66435132       6.11201967      -0.68297071
H        2.72837095       0.01603888      -0.16936873
H        4.15457835       1.43739517      -1.58504378
H        0.63248912       3.33560215      -3.21351676
H       -0.78572728       1.92090227      -1.77980311
H        3.08271492       3.20613459      -4.42419720
H        4.42721910       3.03890100      -3.31351113
H        7.31057066       3.68239083      -0.29681457
H        8.16244717       3.60828353       2.02449094
H        4.49891372       5.39875334       3.42573946
H        1.41911271       6.75003690       0.08344727
H        1.01130148       5.33258587      -0.57891361
C       -0.88199251      -0.88199251      -0.88199251
C       -0.29814509      -1.69212171      -1.85290204
C       -1.10442551      -2.49848342      -2.65871236
C       -2.49828346      -2.50357096      -2.49624528
C       -3.06883569      -1.68455050      -1.50888660
C       -2.26392169      -0.87213283      -0.70727028
C       -3.36151492      -3.38807146      -3.36587904
S       -4.49891458      -2.46716770      -4.43365114
C       -3.32566448      -1.55576132      -5.36254998
N       -2.43257758      -2.21216170      -6.03290852
C       -1.50059170      -1.48102985      -6.78143300
C       -0.53751161      -2.17888488      -7.51417352
C        0.41219245      -1.49296984      -8.27755934
C        0.40017135      -0.09870682      -8.30957864
Br       1.68321837       0.82626740      -9.34302108
C       -0.55048743       0.61588281      -7.58684354
C       -1.49515432      -0.08506819      -6.82711603
C       -2.51852445       0.63512436      -6.05095809
O       -2.55607866       1.86434111      -6.05126760
N       -3.41156290      -0.16548568      -5.33876319
N       -4.40997559       0.51959789      -4.56896401
H        0.78054081      -1.70625313      -1.98806623
H       -0.63593055      -3.12619252      -3.41489423
H       -4.14732499      -1.67403763      -1.36024541
H       -2.72272610      -0.24311947       0.05086748
H       -3.95414711      -4.04251460      -2.71638499
H       -2.74512145      -4.05026082      -3.98424896
H       -0.53060105      -3.26640466      -7.49277036
H        1.15152523      -2.05497868      -8.84278631
H       -0.56542357       1.70289201      -7.60939604
H       -4.52040813       1.44179792      -5.00709213
H       -3.98167681       0.72209475      -3.66321890
C       -0.88199251       0.88199251       0.88199251
C       -1.91914712       0.30957048       1.61445122
C       -2.72496266       1.11582342       2.42083521
C       -2.49651564       2.49792840       2.50365566
C       -1.44314057       3.05668638       1.76244585
C       -0.64113959       2.25229661       0.94988860
C       -3.36720182       3.36046463       3.38779897
S       -4.33180339       4.59275518       2.47517485
C       -5.26879128       3.51252830       1.46265619
N       -6.01318149       2.62386962       2.04059669
C       -6.76774730       1.76665370       1.22865354
C       -7.57979634       0.80932060       1.84145307
C       -8.35230479      -0.06698610       1.07301803
C       -8.31367287       0.01325917      -0.31881794
Br      -9.35951997      -1.17060330      -1.35538137
C       -7.51135876       0.95950309      -0.94941369
C       -6.74349548       1.83024969      -0.16640663
C       -5.88413015       2.84661574      -0.79638771
O       -5.82093046       2.94285151      -2.02077682
N       -5.17115639       3.66348081       0.08117458
N       -4.32109015       4.65359049      -0.51533894
H       -2.10625666      -0.76041003       1.56793193
H       -3.53323385       0.65641552       2.98736793
H       -1.24277753       4.12562118       1.81320932
H        0.16868506       2.70200142       0.38166174
H       -2.72379908       3.88778077       4.10146686
H       -4.04679321       2.74494694       3.98789108
H       -7.61337439       0.74936884       2.92703283
H       -8.97972794      -0.80302681       1.56953863
H       -7.47856929       1.02749442      -2.03413611
H       -4.70658619       4.82983481      -1.45071866
H       -3.42783006       4.19052802      -0.69555712
C        0.88199251      -0.88199251       0.88199251
C        1.43921057      -2.04595117       0.35800709
C        2.24563674      -2.85178615       1.16419841
C        2.50373249      -2.49716716       2.49720005
C        1.93796341      -1.31756199       3.00674740
C        1.12525926      -0.51462771       2.20343783
C        3.38682045      -3.37016031       3.35848466
S        2.52493672      -4.09968721       4.77510948
C        1.31035686      -5.02159375       3.91202516
N        1.70890280      -5.91047489       3.05827010
C        0.73560892      -6.65201075       2.37543488
C        1.15424910      -7.61851516       1.45780576
C        0.22006645      -8.38452693       0.75374335
C       -1.14341642      -8.18383405       0.96769648
Br      -2.40413799      -9.22105358       0.01661971
C       -1.58185578      -7.22608686       1.87721709
C       -0.63434503      -6.46684048       2.57484309
C       -1.05870016      -5.44575172       3.54730663
O       -2.25238536      -5.23775619       3.75763433
N       -0.02915149      -4.75665206       4.18831120
N       -0.42425625      -3.75109312       5.13250483
H        1.25577854      -2.33257729      -0.67457727
H        2.67417224      -3.75973051       0.74311455
H        2.12679860      -1.01840626       4.03640317
H        0.69412664       0.39407246       2.61492392
H        4.21522972      -2.76055579       3.73726120
H        3.84405339      -4.17016980       2.76540803
H        2.21766320      -7.77819296       1.29391990
H        0.56671669      -9.13348400       0.04603907
H       -2.64360849      -7.06648168       2.04905442
H       -1.36806544      -4.01086123       5.44290654
H       -0.56471235      -2.89404615       4.59346716
