137
Properties=species:S:1:pos:R:3 pbc="F F F"
C        0.00000000       0.00000000       0.00000000
C        0.88199251       0.88199251      -0.88199251
C        2.26716615       0.74630157      -0.82970111
C        3.07314333       1.55228232      -1.63619564
C        2.49983607       2.49537271      -2.50289093
C        1.10157465       2.61449793      -2.54620021
C        0.29475939       1.81395013      -1.73461528
C        3.38019818       3.35537895      -3.37988829
S        3.26978528       5.12442844      -3.00551970
C        3.81586177       5.08705646      -1.34105755
N        4.98862730       4.59639477      -1.09262572
C        5.42619263       4.57522407       0.23836216
C        6.69240596       4.05508967       0.51692561
C        7.17310787       4.01457960       1.82935075
C        6.38296670       4.49741843       2.87227103
C        5.11854554       5.01957022       2.61666760
C        4.65095187       5.05354077       1.29715410
C        3.31970492       5.60069034       0.98603708
O        2.59348035       6.03024765       1.88072284
N        2.96230944       5.59124606      -0.36225628
N        1.66435132       6.11201967      -0.68297071
H        2.72837095       0.01603888      -0.16936873
H        4.15457835       1.43739517      -1.58504378
H        0.63248912       3.33560215      -3.21351676
H       -0.78572728       1.92090227      -1.77980311
H        3.08271492       3.20613459      -4.42419720
H        4.42721910       3.03890100      -3.31351113
H        7.31057066       3.68239083      -0.29681457
H        8.16244717       3.60828353       2.02449094
H        4.49891372       5.39875334       3.42573946
H        1.41911271       6.75003690       0.08344727
H        1.01130148       5.33258587      -0.57891361
C        6.87987782       4.45621960       4.22318997
C        7.29604088       4.42171559       5.35458459
Br       7.96894135       4.36592551       7.18395400
C       -0.88199251      -0.88199251      -0.88199251
C       -0.55099719      -1.07049162      -2.22168002
C       -1.35706040      -1.87697408      -3.02758681
C       -2.49596003      -2.50343476      -2.49870490
C       -2.81112256      -2.30633869      -1.14481155
C       -2.00967344      -1.49400085      -0.33965051
C       -3.35588511      -3.38329958      -3.37628072
S       -5.04074563      -2.75704157      -3.60194621
C       -4.66373827      -1.22209455      -4.35814296
N       -3.98355921      -1.23364380      -5.46044478
C       -3.69048110      -0.00517030      -6.06740314
C       -2.96386368      -0.00621494      -7.26049140
C       -2.64892398       1.19457611      -7.90398885
C       -3.06293399       2.40644722      -7.35162734
C       -3.78761450       2.42992866      -6.16376233
C       -4.09549402       1.21921948      -5.53106400
C       -4.86263625       1.20252113      -4.27424307
O       -5.23944149       2.25196969      -3.75553336
N       -5.11754929      -0.05986105      -3.73840144
N       -5.85587121      -0.09487116      -2.50859934
H        0.33153682      -0.59869519      -2.64662019
H       -1.08824760      -2.01527143      -4.07349827
H       -3.68689844      -2.78496177      -0.70974782
H       -2.26964722      -1.35111271       0.70578182
H       -3.41740832      -4.37723737      -2.91840101
H       -2.89228559      -3.52887304      -4.35847260
H       -2.64455114      -0.95148975      -7.69373518
H       -2.08488456       1.17176640      -8.83312160
H       -4.11421223       3.37176315      -5.72947852
H       -6.39096021       0.78103224      -2.47577437
H       -5.16685976       0.00414028      -1.76008148
C       -2.73895584       3.64218966      -8.01614127
C       -2.46762413       4.67712395      -8.57267170
Br      -2.02890371       6.35052517      -9.47253433
C       -0.88199251       0.88199251       0.88199251
C       -1.45975124       0.35081673       2.03260086
C       -2.26557358       1.15721942       2.83882830
C       -2.49524840       2.50016995       2.50268135
C       -1.90030097       3.01993132       1.34204051
C       -1.10007410       2.21225402       0.53099668
C       -3.35996258       3.36788639       3.38761645
S       -4.86956341       3.95436119       2.57580882
C       -5.61184271       2.40626853       2.22586454
N       -5.85545548       1.60674860       3.21544372
C       -6.45659201       0.37277613       2.93368640
C       -6.73065158      -0.49424182       3.99416025
C       -7.33124294      -1.73555955       3.76265333
C       -7.66092102      -2.11430587       2.46149896
C       -7.39638647      -1.26566152       1.39072321
C       -6.79464515      -0.02571208       1.63840547
C       -6.50119162       0.90092870       0.53223787
O       -6.77307274       0.59822758      -0.62829517
N       -5.90864909       2.10975441       0.89740828
N       -5.60683623       3.02129074      -0.16878527
H       -1.28701449      -0.68551157       2.31227564
H       -2.71246013       0.72971168       3.73484548
H       -2.05957719       4.05993436       1.06209648
H       -0.64896727       2.63073219      -0.36472136
H       -2.77471569       4.24152034       3.69681068
H       -3.62964432       2.84046300       4.30952391
H       -6.47753093      -0.19726810       5.00951323
H       -7.53859602      -2.39450216       4.60214590
H       -7.65268215      -1.55521362       0.37445906
H       -6.24403407       2.77825304      -0.93658477
H       -4.68284221       2.75653444      -0.51657569
C       -8.28056212      -3.39243266       2.22477799
C       -8.79951154      -4.46286385       2.02652418
Br      -9.63860887      -6.19366054       1.70596453
C        0.88199251      -0.88199251       0.88199251
C        1.96211743      -0.32152234       1.55952906
C        2.76793796      -1.12775591       2.36592743
C        2.49671392      -2.49768976       2.50369603
C        1.40054016      -3.04424501       1.81748763
C        0.59825600      -2.24020840       1.00486040
C        3.36813275      -3.35978855       3.38754412
S        4.25938740      -4.65409174       2.48625428
C        5.19639818      -3.64088458       1.40669302
N        5.98928501      -2.75961519       1.92874759
C        6.74356600      -1.95624196       1.06324658
C        7.60751123      -1.00754259       1.61551619
C        8.38184213      -0.18427214       0.79222245
C        8.29279733      -0.30930397      -0.59398719
C        7.43833296      -1.24785187      -1.16473666
C        6.66932688      -2.06524432      -0.32723266
C        5.75556966      -3.07185489      -0.89306637
O        5.64720411      -3.20645663      -2.11065559
N        5.04642602      -3.83417316       0.03521259
N        4.14397813      -4.81376562      -0.49840205
H        2.18293610       0.73926779       1.47011024
H        3.60999135      -0.67781968       2.88920626
H        1.16666355      -4.10339463       1.91154985
H       -0.24508514      -2.68045550       0.47960774
H        2.73246503      -3.84071807       4.13986361
H        4.08798791      -2.74838800       3.94325531
H        7.68031798      -0.91277434       2.69668374
H        9.05003314       0.54586698       1.24207361
H        7.36607644      -1.35064913      -2.24479797
H        4.49106425      -5.03409775      -1.43945967
H        3.26092135      -4.32654139      -0.66466178
C        9.09180654       0.53835165      -1.44054744
C        9.76097675       1.24826323      -2.14954164
Br      10.84296838       2.39613021      -3.29592531
