137
Properties=species:S:1:pos:R:3 pbc="F F F"
C        0.00000000       0.00000000       0.00000000
C        0.88170362       0.88170362      -0.88170362
C        0.31742989       1.94848933      -1.57747069
C        1.12508072       2.75348233      -2.38315293
C        2.49731951       2.48974627      -2.50505867
C        3.05270822       1.41872922      -1.78973619
C        2.24583654       0.61447513      -0.98176781
C        3.36218986       3.36935602      -3.36809170
N        3.87042780       4.49452038      -2.61696356
C        3.32721285       5.75108414      -2.73449709
O        2.36937815       6.01064913      -3.45359615
C        3.98721443       6.80399589      -1.90109667
C        5.33134540       6.82622913      -1.91403819
C        6.09955018       7.87803257      -1.21831331
O        7.32486022       7.84569995      -1.20416904
N        5.38397909       8.86964867      -0.61717532
H        5.92754224       9.59255616      -0.16433918
C        3.98657659       8.91242398      -0.59721948
C        3.35406545       9.97823240       0.04706916
C        1.96275224      10.02764882       0.09475192
C        1.21897040       9.00714328      -0.49318274
Br      -0.67030711       9.06952477      -0.41439301
C        1.85005995       7.94067328      -1.14057391
C        3.24854046       7.88626296      -1.21377443
H       -0.74519980       2.16355053      -1.50008495
H        0.68084263       3.59167135      -2.91877693
H        4.11581185       1.20038394      -1.86058312
H        2.68885279      -0.21558193      -0.43717116
H        2.80561688       3.70861583      -4.24936239
H        4.22707257       2.80576388      -3.73517169
H        4.54637910       4.30323332      -1.89095184
H        5.93739430       6.11053687      -2.45576286
H        3.93209329      10.77416484       0.51170720
H        1.47052058      10.85914822       0.59130995
H        1.23856715       7.16226381      -1.59230983
C       -0.88170362      -0.88170362      -0.88170362
C       -0.83228887      -0.74406622      -2.26703482
C       -1.63916920      -1.55099567      -3.07155111
C       -2.50591957      -2.49113772      -2.49506717
C       -2.53638111      -2.62551712      -1.09927539
C       -1.72781333      -1.82029423      -0.29397192
C       -3.36474774      -3.36395125      -3.37093859
N       -2.66377404      -4.57017926      -3.74795844
C       -2.09858832      -4.72327697      -4.99092880
O       -2.12064373      -3.85622364      -5.85675606
C       -1.42935067      -6.04152186      -5.22143445
C       -2.10551328      -7.13570666      -4.83039277
C       -1.60210489      -8.49834756      -5.09544360
O       -2.21377444      -9.47750583      -4.68344895
N       -0.45135467      -8.60163593      -5.81781249
H       -0.13364504      -9.54294580      -6.00784675
C        0.27723194      -7.49906489      -6.27438710
C        1.44425335      -7.71999034      -7.00949169
C        2.19426995      -6.63423799      -7.45568110
C        1.77549066      -5.34032988      -7.15445720
Br       2.80384135      -3.86795416      -7.74949785
C        0.60646692      -5.11696463      -6.42080942
C       -0.16931713      -6.19812662      -5.98113410
H       -0.17151078      -0.01620153      -2.73072336
H       -1.59096610      -1.44555612      -4.15476870
H       -3.19312329      -3.35414311      -0.62951251
H       -1.76563471      -1.93158828       0.78678097
H       -3.69410465      -2.81116337      -4.25832708
H       -4.26860532      -3.66794245      -2.83146037
H       -2.47397466      -5.24556193      -3.02102767
H       -3.06811742      -7.10027382      -4.33530278
H        1.77683597      -8.72936142      -7.24202547
H        3.09919286      -6.80570507      -8.03184664
H        0.30648054      -4.09328526      -6.20633608
C       -0.88170362       0.88170362       0.88170362
C       -2.23180095       1.03627355       0.57531541
C       -3.03636231       1.84282919       1.38252448
C       -2.49324988       2.50620917       2.49266541
C       -1.13467083       2.33196981       2.79453299
C       -0.32976543       1.52344556       1.98886849
C       -3.37073047       3.36567725       3.36322986
N       -3.98746338       2.58387733       4.41057103
C       -5.29790917       2.17737667       4.33750825
O       -6.03008970       2.41870450       3.38482923
C       -5.78185525       1.39374755       5.51670419
C       -5.46455352       1.87637994       6.73067925
C       -5.96880092       1.25527643       7.97181871
O       -5.62302210       1.68528263       9.06642449
N       -6.82985187       0.20842373       7.83252749
H       -7.18144612      -0.19014235       8.69313381
C       -7.21670796      -0.31594616       6.59545824
C       -8.10808455      -1.39104139       6.56818553
C       -8.48953483      -1.93988850       5.34600281
C       -7.96901189      -1.41506965       4.16535418
Br      -8.47775963      -2.17178668       2.50763772
C       -7.07850184      -0.33751875       4.19032404
C       -6.69978409       0.23809985       5.41069392
H       -2.66815277       0.53512225      -0.28483935
H       -4.09345868       1.95402246       1.14380978
H       -0.69292487       2.82824121       3.65561282
H        0.72288521       1.40167741       2.23164982
H       -4.13005873       3.87493960       2.75859676
H       -2.77381570       4.14601078       3.84818167
H       -3.38596498       2.21900361       5.13559568
H       -4.85855486       2.76075328       6.88438589
H       -8.51243147      -1.80657943       7.48869889
H       -9.18679690      -2.77271918       5.32428112
H       -6.69385818       0.05008640       3.24919621
C        0.88170362      -0.88170362       0.88170362
C        2.03901825      -0.35432079       1.45005087
C        2.84393946      -1.16194236       2.25583416
C        2.50148151      -2.50210166       2.48854128
C        1.32743378      -3.01550496       1.91823488
C        0.52053525      -2.20755566       1.11398856
C        3.37008093      -3.36248527       3.36707138
N        2.97672429      -3.25191985       4.75326759
C        3.68054734      -2.48346086       5.64878588
O        4.66642003      -1.82159943       5.34560397
C        3.14796257      -2.49736629       7.04697813
C        2.81955427      -3.69860943       7.55344902
C        2.38169077      -3.85976900       8.95443628
O        2.03993676      -4.95898859       9.37580387
N        2.39074584      -2.74380038       9.73625686
H        2.10843154      -2.87773165      10.69827440
C        2.75037132      -1.47551558       9.27033314
C        2.72636261      -0.39889962      10.15996646
C        3.06203096       0.87576478       9.70938296
C        3.40856273       1.06247348       8.37320717
Br       3.85008987       2.79724762       7.76076841
C        3.43547355      -0.01417311       7.48166046
C        3.11895367      -1.30584293       7.92378125
H        2.32337687       0.68006993       1.27512873
H        3.74360213      -0.74275503       2.70493376
H        1.03590661      -4.04878669       2.09208561
H       -0.38387266      -2.62027365       0.67404103
H        4.42614558      -3.09801311       3.23943641
H        3.26901576      -4.41584956       3.08314283
H        2.08255477      -3.64144375       5.01656574
H        2.88629282      -4.62350200       6.99389920
H        2.45118416      -0.54044551      11.20292126
H        3.04842912       1.71237857      10.40230830
H        3.71416496       0.16654686       6.44552270
