145
Properties=species:S:1:pos:R:3 pbc="F F F"
C        0.00000000       0.00000000       0.00000000
C        0.88170362       0.88170362      -0.88170362
C        0.31742989       1.94848933      -1.57747069
C        1.12508072       2.75348233      -2.38315293
C        2.49731951       2.48974627      -2.50505867
C        3.05270822       1.41872922      -1.78973619
C        2.24583654       0.61447513      -0.98176781
C        3.36218986       3.36935602      -3.36809170
N        3.87042780       4.49452038      -2.61696356
C        3.32721285       5.75108414      -2.73449709
O        2.36937815       6.01064913      -3.45359615
C        3.98721443       6.80399589      -1.90109667
C        5.33134540       6.82622913      -1.91403819
C        6.09955018       7.87803257      -1.21831331
O        7.32486022       7.84569995      -1.20416904
N        5.38397909       8.86964867      -0.61717532
H        5.92754224       9.59255616      -0.16433918
C        3.98657659       8.91242398      -0.59721948
C        3.35406545       9.97823240       0.04706916
C        1.96275224      10.02764882       0.09475192
C        1.21897040       9.00714328      -0.49318274
C        1.85005995       7.94067328      -1.14057391
C        3.24854046       7.88626296      -1.21377443
H       -0.74519980       2.16355053      -1.50008495
H        0.68084263       3.59167135      -2.91877693
H        4.11581185       1.20038394      -1.86058312
H        2.68885279      -0.21558193      -0.43717116
H        2.80561688       3.70861583      -4.24936239
H        4.22707257       2.80576388      -3.73517169
H        4.54637910       4.30323332      -1.89095184
H        5.93739430       6.11053687      -2.45576286
H        3.93209329      10.77416484       0.51170720
H        1.47052058      10.85914822       0.59130995
H        1.23856715       7.16226381      -1.59230983
C       -0.21899672       9.05462308      -0.43321429
C       -1.42329419       9.09438742      -0.38299072
Br      -3.37054134       9.15868298      -0.30178345
C       -0.88170362      -0.88170362      -0.88170362
C       -0.38275075      -1.37586483      -2.08477433
C       -1.19033026      -2.18176718      -2.88961853
C       -2.50265417      -2.48859380      -2.50087648
C       -2.98699007      -1.99256823      -1.28161532
C       -2.17892930      -1.18826986      -0.47488032
C       -3.36262860      -3.36673758      -3.37027140
N       -3.17537644      -4.76216544      -3.04436985
C       -2.40153677      -5.59149759      -3.81975973
O       -1.79799028      -5.21712385      -4.81850930
C       -2.33177938      -7.01042039      -3.35010722
C       -3.49436746      -7.58367464      -2.99357061
C       -3.57569693      -9.00791713      -2.61228199
O       -4.63950183      -9.49224125      -2.24298613
N       -2.42881885      -9.73796219      -2.70402205
H       -2.50870902     -10.71620326      -2.45952531
C       -1.19897820      -9.20084454      -3.09639730
C       -0.08528606     -10.04166973      -3.15827289
C        1.15264935      -9.52060280      -3.52769570
C        1.26633519      -8.16381335      -3.82181826
C        0.15240087      -7.32095562      -3.76275238
C       -1.10372552      -7.83351696      -3.41133537
H        0.62946049      -1.14286790      -2.40502826
H       -0.79294959      -2.57277078      -3.82557055
H       -3.99781982      -2.22475296      -0.95420614
H       -2.56924929      -0.80631461       0.46512188
H       -3.15133629      -3.18233630      -4.42992251
H       -4.42160485      -3.13476856      -3.21163473
H       -3.51291353      -5.08063308      -2.14701764
H       -4.44441340      -7.06368914      -2.99559149
H       -0.16963207     -11.10072803      -2.92419083
H        2.01791718     -10.17538107      -3.58089495
H        0.27598053      -6.26679969      -4.00232163
C        2.54920720      -7.62516036      -4.19288749
C        3.62361250      -7.17403848      -4.50365797
Br       5.36083501      -6.44461255      -5.00614755
C       -0.88170362       0.88170362       0.88170362
C       -2.15066283       1.25119258       0.44153451
C       -2.95534403       2.05740335       1.24896860
C       -2.49164075       2.50606938       2.49441432
C       -1.21605295       2.11662340       2.92849728
C       -0.41147309       1.30824713       2.12235926
C       -3.37032054       3.36664460       3.36267244
N       -4.21003972       2.55651956       4.21535246
C       -5.53757553       2.34109757       3.93412098
O       -6.10157728       2.78934075       2.94270540
C       -6.26456227       1.49577516       4.93196956
C       -6.05831731       1.78465200       6.22864340
C       -6.79439621       1.09464487       7.30685497
O       -6.55032623       1.34202031       8.48238267
N       -7.74652363       0.19669053       6.92758893
H       -8.25504616      -0.24990909       7.67930051
C       -8.02303206      -0.12118735       5.59437533
C       -9.02336832      -1.05608956       5.31794992
C       -9.29944734      -1.40053415       3.99673595
C       -8.56684732      -0.81458963       2.96703873
C       -7.56676447       0.12311699       3.24142568
C       -7.28996852       0.49448258       4.56412675
H       -2.52371947       0.91828392      -0.52356772
H       -3.95023074       2.33689247       0.90416771
H       -0.83838964       2.44389749       3.89449178
H        0.57724463       1.01846996       2.46921670
H       -3.97610322       4.04103967       2.74645221
H       -2.75595008       3.99700152       4.01505655
H       -3.75864922       2.03115171       4.95076333
H       -5.37825837       2.55527767       6.57015799
H       -9.59383931      -1.51938263       6.12009424
H      -10.08092725      -2.12378690       3.78121849
H       -7.01621148       0.56400687       2.41292244
C       -8.84649560      -1.18025862       1.60260367
C       -9.08070104      -1.48650640       0.45988931
Br      -9.45939142      -1.98168316      -1.38778316
C        0.88170362      -0.88170362       0.88170362
C        2.14421202      -0.43453579       1.26464210
C        2.94895525      -1.24203718       2.07072354
C        2.49994039      -2.50341891       2.48876515
C        1.22210407      -2.93506235       2.10400721
C        0.41561595      -2.12685400       1.29960953
C        3.37051477      -3.36288318       3.36623963
N        3.15141817      -3.06681534       4.76367822
C        4.02783563      -2.29614912       5.48880932
O        5.03517560      -1.78572734       5.01272049
C        3.65978659      -2.10595345       6.92656695
C        3.27013587      -3.20364370       7.59783314
C        2.98093372      -3.16949048       9.04547186
O        2.57882049      -4.17355130       9.62235743
N        3.19338972      -1.98772794       9.68968542
H        3.01055807      -1.98936416      10.68451536
C        3.62538091      -0.82320326       9.04763587
C        3.81344716       0.33448350       9.80626504
C        4.22416931       1.50961823       9.18109806
C        4.43313611       1.51777527       7.80393558
C        4.24771603       0.35953099       7.04312209
C        3.85320879      -0.83546082       7.65990824
H        2.51111437       0.53724345       0.94456476
H        3.93216743      -0.88457016       2.37455332
H        0.84810914      -3.90503681       2.42363296
H       -0.57057805      -2.47644952       1.00457055
H        4.42658482      -3.23519611       3.10181417
H        3.13039951      -4.42131039       3.21629824
H        2.25801917      -3.32267508       5.15987001
H        3.17751684      -4.18249327       7.14368391
H        3.64612972       0.33279274      10.88121394
H        4.37549033       2.40881805       9.77168657
H        4.42329321       0.40022912       5.97007670
C        4.84714285       2.73643994       7.15813775
C        5.19387349       3.75707161       6.61728206
Br       5.75450761       5.40734668       5.74276416
