173
Properties=species:S:1:pos:R:3 pbc="F F F"
C        0.00000000       0.00000000       0.00000000
O        3.33561676       2.17950438      -5.92737386
C        2.67570921       3.19204602      -5.71408769
N        2.66228566       3.85575014      -4.50974399
C        3.38424404       3.36052065      -3.36078334
C        2.51017923       2.49836784      -2.48723047
C        1.75845102       3.05987859      -1.44508672
C        0.94875420       2.25300427      -0.64176565
C        0.88175738       0.88175738      -0.88175738
C        1.61092227       0.31015719      -1.92146653
C        2.41898715       1.11799040      -2.72457005
C        1.86905076       3.86284247      -6.79758308
C        2.78021174       4.81110752      -7.55905955
N        2.06544925       5.53967997      -8.59989289
N        2.01827140       4.93535179      -9.83576550
C        1.38802674       5.54609665     -10.79257959
C        0.75232415       6.87459604     -10.63839161
C        0.76655822       7.41611737      -9.42033970
C        1.41262898       6.72293585      -8.28867812
O        1.35815423       7.22198521      -7.16614400
C        1.31437176       4.89777816     -12.13714219
C        0.23881329       5.10980700     -13.01114375
C        0.20685671       4.47232516     -14.25626680
C        1.24222195       3.61495865     -14.62492864
Br       1.19162618       2.75309630     -16.30603720
C        2.30806754       3.38250855     -13.75914709
C        2.34161395       4.02025405     -12.51591926
H        2.00106624       4.60817122      -4.36562923
H        3.73952766       4.23059257      -2.79754680
H        4.27200481       2.80260410      -3.68086817
H        1.80276844       4.12851267      -1.24883084
H        0.37683394       2.70163707       0.16581999
H        1.55869495      -0.75757034      -2.11827282
H        2.97966671       0.66716357      -3.54351548
H        1.01619159       4.39480692      -6.35931317
H        1.45330317       3.09200227      -7.45691589
H        3.60962668       4.26522537      -8.02497405
H        3.22994689       5.53852690      -6.87140699
H        0.32127613       7.39329238     -11.48230313
H        0.33138864       8.38394367      -9.20826257
H       -0.59979738       5.74306314     -12.73669338
H       -0.63356213       4.64277085     -14.92488869
H        3.11302180       2.70639739     -14.03606262
H        3.17625475       3.82723626     -11.84411399
O       -3.92435545      -5.67591126      -1.84222829
C       -4.78550606      -4.81294935      -1.98338751
N       -4.61220857      -3.67689116      -2.73868007
C       -3.35298383      -3.37413522      -3.37842897
C       -2.48824339      -2.49659973      -2.51093443
C       -2.56833716      -1.09916742      -2.59591175
C       -1.76438653      -0.29339203      -1.78574556
C       -0.88175738      -0.88175738      -0.88175738
C       -0.79994390      -2.26785234      -0.77474975
C       -1.60502747      -3.07222925      -1.58429089
C       -6.16831188      -4.96127878      -1.39988565
C       -7.02297002      -5.74688880      -2.38052000
N       -8.39570174      -5.89610972      -1.91321065
N       -8.65149549      -7.00257682      -1.13531637
C       -9.85996661      -7.17403696      -0.69269940
C      -10.98633894      -6.26722995      -1.01174290
C      -10.70365804      -5.17599663      -1.72336062
C       -9.32865993      -4.90757582      -2.18800720
O       -9.09003848      -3.86369460      -2.79255035
C      -10.15243570      -8.36222032       0.16536391
C      -11.15592671      -8.34821638       1.14437906
C      -11.38687449      -9.48104750       1.93247331
C      -10.60965026     -10.62390418       1.75144521
Br     -10.92299640     -12.14956554       2.82180226
C       -9.59846528     -10.64526581       0.79400792
C       -9.36827418      -9.51468579       0.00517270
H       -5.31560690      -2.94991963      -2.70934016
H       -3.57930381      -2.86598175      -4.32238146
H       -2.82323042      -4.29967001      -3.63257667
H       -3.25352368      -0.62918295      -3.29740532
H       -1.83325619       0.78788838      -1.86728321
H       -0.11831869      -2.73348763      -0.06759111
H       -1.54455907      -4.15647995      -1.48930674
H       -6.60024239      -3.97424834      -1.19582095
H       -6.09118515      -5.47597955      -0.43505664
H       -6.60371106      -6.74613803      -2.54997702
H       -7.04013842      -5.24399453      -3.35574782
H      -11.99661779      -6.49552064      -0.70473321
H      -11.45877170      -4.45552464      -2.00929853
H      -11.75270605      -7.46068094       1.33342785
H      -12.16651071      -9.45771000       2.69012330
H       -8.98147907     -11.52952184       0.65551910
H       -8.57158942      -9.53965376      -0.73636182
O       -1.81852898       5.64652802       3.97743802
C       -2.71626403       5.72159527       3.14398363
N       -3.54173729       4.67254956       2.81349294
C       -3.36474906       3.35717439       3.38362457
C       -2.50218376       2.48575033       2.50784346
C       -3.07087633       1.68804511       1.50449490
C       -2.26295476       0.88505266       0.69551670
C       -0.88175738       0.88175738       0.88175738
C       -0.29956896       1.67870659       1.86427044
C       -1.10816188       2.48190787       2.67147785
C       -3.05858449       7.01779157       2.45310024
C       -4.02853108       7.79015053       3.33169720
N       -4.45001436       9.04132760       2.71368015
N       -3.66655842      10.14089916       2.98193109
C       -4.00148728      11.27638780       2.44882789
C       -5.20168330      11.46206446       1.60156403
C       -5.91546487      10.37351396       1.31403646
C       -5.52980801       9.05085724       1.84357771
O       -6.17544821       8.05792957       1.51290566
C       -3.15401287      12.47769965       2.71757959
C       -3.03388307      13.52857177       1.79730920
C       -2.21953947      14.62885803       2.08705117
C       -1.51658212      14.67571865       3.28980846
Br      -0.41462147      16.16219678       3.67394144
C       -1.61386913      13.63063591       4.20521813
C       -2.42846730      12.53199770       3.91732227
H       -4.17592499       4.76824275       2.03069895
H       -4.35979819       2.91237233       3.49549650
H       -2.93364372       3.43310852       4.38872485
H       -4.14724538       1.68284436       1.35002220
H       -2.71868321       0.26770709      -0.07373928
H        0.77742573       1.68580622       2.01101693
H       -0.64655406       3.11160574       3.43218596
H       -3.48868879       6.81702602       1.46459687
H       -2.13451079       7.58302219       2.28468834
H       -3.57648531       8.01883887       4.30450193
H       -4.92081863       7.18442401       3.53463814
H       -5.50013013      12.44102131       1.25572021
H       -6.80999235      10.40759259       0.70600994
H       -3.54012568      13.50308291       0.83675054
H       -2.13248093      15.43694324       1.36467324
H       -1.05954623      13.65591976       5.14001582
H       -2.49303182      11.71763461       4.63693858
O        5.99311114      -3.07473909       2.37464478
C        5.66375720      -2.50662668       3.41145904
N        4.41927696      -2.62373644       3.98476640
C        3.36251533      -3.38410759       3.35892511
C        2.48814911      -2.51087826       2.49675017
C        1.35807104      -1.87486670       3.03047860
C        0.55452598      -1.06494213       2.22405601
C        0.88175738      -0.88175738       0.88175738
C        2.00845121      -1.49474695       0.33934783
C        2.81159530      -2.30313260       1.14681970
C        6.63724230      -1.67926218       4.21297182
C        7.39694141      -2.60332242       5.15011499
N        8.33075937      -1.87451968       5.99974307
N        9.59814177      -1.69930358       5.49194333
C       10.46255551      -1.05170618       6.21244129
C       10.17226715      -0.52674012       7.56630452
C        8.92448436      -0.66337525       8.01515568
C        7.89286440      -1.33259760       7.19878096
O        6.73799277      -1.39126273       7.61702793
C       11.83914437      -0.83953322       5.67061452
C       12.61576210       0.27464713       6.01864906
C       13.89571744       0.43776998       5.47750121
C       14.39654059      -0.50468548       4.58088315
Br      16.12421303      -0.27694722       3.84959943
C       13.62878212      -1.60714995       4.21379110
C       12.35081075      -1.77174495       4.75523157
H        4.17635800      -2.03060532       4.76790337
H        2.76883044      -3.83952252       4.15931406
H        3.78383771      -4.20488149       2.76675789
H        1.09329726      -2.01039864       4.07641604
H       -0.32134591      -0.58362736       2.65036957
H        2.27313302      -1.35137340      -0.70510899
H        3.69809826      -2.77232934       0.71991816
H        6.10264200      -0.89936359       4.76830609
H        7.31537126      -1.16439486       3.52245521
H        7.95828253      -3.35699545       4.58454812
H        6.69607293      -3.15076256       5.79304529
H       10.94516187      -0.07830314       8.17340664
H        8.61579705      -0.31552823       8.99226960
H       12.23830917       1.04411815       6.68576812
H       14.48799242       1.30704492       5.75314992
H       14.00914578      -2.33983386       3.50650216
H       11.75648251      -2.63383822       4.45728427
