125
Properties=species:S:1:pos:R:3 pbc="F F F"
C        0.00000000       0.00000000       0.00000000
C        0.88203684       0.88203684      -0.88203684
C        0.79934156       2.26835099      -0.77248749
C        1.60660614       3.07198136      -1.57506667
C        2.48991119       2.48771971      -2.48823720
C        2.57337558       1.09177199      -2.60839724
C        1.76278769       0.29264390      -1.78873366
C        3.49234905       0.45286376      -3.54390087
C        3.92396133       1.01718930      -4.72582053
S        4.99671697      -0.05031404      -5.52442615
C        4.80387137      -1.20706358      -4.25077760
N        3.98508552      -0.81824184      -3.29884179
N        5.48597602      -2.37085028      -4.33407312
C        5.50392387      -3.48297414      -3.46621607
C        4.72284199      -3.56819064      -2.30559140
C        4.77006224      -4.69384902      -1.47377578
C        5.60513376      -5.76234212      -1.78345298
C        6.39689716      -5.70719872      -2.92599377
C        6.34528455      -4.58056493      -3.75473857
H        0.11619820       2.72918476      -0.06402438
H        1.55468147       4.15419637      -1.48655383
H        3.12165177       3.13939578      -3.08551834
H        1.82142021      -0.79128870      -1.86388852
H        3.67157925       1.97303152      -5.16029328
H        6.09352801      -2.48744324      -5.13829326
H        4.05463896      -2.76130789      -2.01951805
H        4.14863069      -4.72813798      -0.58199657
H        5.63870766      -6.63413202      -1.13560279
H        7.04981830      -6.54270959      -3.16420432
C        7.18733511      -4.57763429      -4.92287480
C        7.89255245      -4.57517987      -5.90118890
Br       9.03282925      -4.57121129      -7.48304006
C       -0.88203684      -0.88203684      -0.88203684
C       -1.15334725      -0.49448914      -2.19234364
C       -1.95524769      -1.30128074      -2.99712573
C       -2.48776407      -2.48992332      -2.48818072
C       -2.22383217      -2.88289140      -1.16682126
C       -1.40763130      -2.06763565      -0.36889830
C       -2.75609726      -4.12207458      -0.61094184
C       -3.93068712      -4.72053881      -1.01574523
S       -4.19177322      -6.15654319      -0.12251265
C       -2.72912527      -5.88006212       0.76160200
N       -2.09643624      -4.78198570       0.41273646
N       -2.36892318      -6.78187429       1.70159861
C       -1.25834178      -6.80024386       2.57141984
C       -0.29846872      -5.78002273       2.61824871
C        0.78750143      -5.83809411       3.50060368
C        0.94028662      -6.92352871       4.35699747
C        0.00742733      -7.95526782       4.33214829
C       -1.07678495      -7.89205678       3.44938354
H       -0.74171945       0.42719335      -2.59488125
H       -2.16165445      -1.00990192      -4.02387529
H       -3.09210424      -3.10872182      -3.14573983
H       -1.18680331      -2.36224902       0.65503229
H       -4.63909843      -4.40050681      -1.76529881
H       -2.97522851      -7.58707343       1.81792390
H       -0.37214709      -4.91135478       1.97065276
H        1.51266124      -5.02777202       3.51262150
H        1.78416295      -6.96473444       5.04039305
H        0.13060861      -8.80294652       5.00102487
C       -2.01013825      -8.98849357       3.46605619
C       -2.79182164      -9.90675938       3.48001954
Br      -4.05573757     -11.39151754       3.50259709
C       -0.88203684       0.88203684       0.88203684
C       -0.99326938       0.60428933       2.24262132
C       -1.79539688       1.41132402       3.04693326
C       -2.48794193       2.48994519       2.48798099
C       -2.38556465       2.77129008       1.11669009
C       -1.56779976       1.95785128       0.31851421
C       -3.08716718       3.89532463       0.50662187
C       -4.27405926       4.42217237       0.97073953
S       -4.75723055       5.73213834      -0.01853982
C       -3.36056392       5.50259206      -1.01557059
N       -2.59233263       4.50680910      -0.63345625
N       -3.17901763       6.33495233      -2.06477109
C       -2.15935013       6.36704344      -3.03922777
C       -1.11060604       5.43856849      -3.08893179
C       -0.12042731       5.50651338      -4.07695169
C       -0.15515541       6.51034723      -5.03925802
C       -1.18027750       7.45049055      -5.01507584
C       -2.16816391       7.37765342      -4.02635915
H       -0.45682574      -0.23140989       2.68399149
H       -1.87765275       1.20643325       4.11134567
H       -3.08889746       3.11392692       3.14374151
H       -1.47132185       2.16753706      -0.74483887
H       -4.87601737       4.11565580       1.81323088
H       -3.87075500       7.06615651      -2.19253348
H       -1.03809006       4.63584177      -2.36108272
H        0.67794417       4.76819833      -4.08776488
H        0.61488047       6.55948669      -5.80442778
H       -1.20357780       8.23478605      -5.76705081
C       -3.20400487       8.37771070      -4.04913994
C       -4.07152167       9.21525866      -4.06821885
Br      -5.47422297      10.56950288      -4.09906783
C        0.88203684      -0.88203684       0.88203684
C        0.81612902      -2.26786649       0.75618451
C        1.62340482      -3.07144473       1.55880462
C        2.48990518      -2.48770120       2.48826173
C        2.55635609      -1.09234973       2.62483900
C        1.74599757      -0.29311834       1.80504934
C        3.45765911      -0.45382118       3.57763339
C        3.88243250      -1.02655226       4.75798640
S        4.93420722       0.04376167       5.58038352
C        4.74253911       1.21252292       4.31756920
N        3.93878645       0.82534625       3.35224528
N        5.41057086       2.38280112       4.42142913
C        5.42566646       3.50472717       3.56622651
C        4.65660857       3.59429070       2.39792487
C        4.70042094       4.72966994       1.57923800
C        5.51995726       5.80382329       1.91011065
C        6.29955852       5.74465069       3.06078437
C        6.25139937       4.60828186       3.87634067
H        0.14610767      -2.72827351       0.03502617
H        1.58461681      -4.15310772       1.45770714
H        3.12225203      -3.13898798       3.08532588
H        1.79162160       0.79048642       1.89288486
H        3.63598829      -1.98995374       5.17896201
H        6.00781139       2.49709628       5.23366293
H        4.00072140       2.78330242       2.09543013
H        4.08858088       4.76706667       0.68097507
H        5.55093256       6.68314924       1.27239511
H        6.94037565       6.58463113       3.31556851
C        7.08041133       4.60158639       5.05375069
C        7.77470885       4.59597894       6.03983157
Br       8.89732921       4.58691216       7.63424097
