198
Properties=species:S:1:pos:R:3 pbc="F F F"
C        1.79120621       1.79120621      -1.79120621
C        1.82017649       1.58887223      -3.16904371
C        2.63085485       2.39645492      -3.97464885
C        3.43793695       3.38605881      -3.40196275
C        3.38476525       3.58685196      -2.01863126
C        2.56114507       2.79487760      -1.21354255
N        4.25622685       4.15305446      -4.26078873
C        5.35776481       4.89374545      -3.86461287
O        5.84925309       4.87942728      -2.73702359
C        5.98973595       5.72174209      -4.95646013
N        5.33158430       7.00017066      -5.11692818
N        4.73224363       7.27907733      -6.29312358
N        4.31781686       8.53713144      -6.25005168
C        4.65425133       9.05972798      -5.02345463
C        4.36115510      10.43647614      -4.62251577
O        4.64259977      10.84511892      -3.50185905
N        3.76539833      11.17359945      -5.63020616
C        3.35593293      12.52150958      -5.58036910
C        3.49323238      13.33495405      -4.45585886
C        3.05565543      14.66236062      -4.48080775
C        2.47538415      15.19172096      -5.63363632
Br       1.90232135      17.00078853      -5.57555828
C        2.32885682      14.39826004      -6.77969577
C        1.70680363      14.92481519      -8.04269050
C        2.77467329      13.06240090      -6.73589891
C        5.30245794       8.08519588      -4.27957781
C        5.85774231       8.14488554      -2.90612484
H        1.22198923       0.80393182      -3.62406540
H        2.64409427       2.21451988      -5.04591183
H        3.95839676       4.37206139      -1.53467311
H        2.53429236       2.97300319      -0.14151613
H        4.08074073       4.05565899      -5.25474514
H        5.96198941       5.18065746      -5.90888030
H        7.04115395       5.91387451      -4.71549594
H        3.61433710      10.67049995      -6.49879286
H        3.93600897      12.97358823      -3.53350147
H        3.17405036      15.27094012      -3.58769738
H        1.70266228      14.16798335      -8.83422399
H        2.27113419      15.78412955      -8.41897293
H        0.66690622      15.21596357      -7.86293461
H        2.66171505      12.44105086      -7.62192109
H        6.39381809       7.24105867      -2.61782791
H        5.05135573       8.30450998      -2.18223102
H        6.56562669       8.97500416      -2.81873338
C       -1.79120621      -1.79120621      -1.79120621
C       -2.61426083      -1.21053545      -2.75329614
C       -3.42321216      -2.02040009      -3.55834637
C       -3.43519618      -3.40872250      -3.38203982
C       -2.59073670      -3.97700194      -2.42250984
C       -1.76696509      -3.17228670      -1.63031344
N       -4.29143451      -4.17395350      -4.20468203
C       -4.70745306      -5.46852426      -3.94014581
O       -4.49462820      -6.07803397      -2.89304179
C       -5.52284389      -6.10799015      -5.03710413
N       -4.68691565      -6.70692160      -6.05484589
N       -4.75717612      -6.23163077      -7.31563766
N       -4.00991272      -7.00945819      -8.08562909
C       -3.45218672      -7.98819446      -7.29705276
C       -2.57108601      -9.03749402      -7.81156699
O       -2.06307377      -9.86393257      -7.06257139
N       -2.40858952      -8.97660291      -9.18401151
C       -1.63305774      -9.82962212      -9.99513174
C       -0.88148795     -10.89739507      -9.50516227
C       -0.13039980     -11.69557955     -10.37284445
C       -0.12356429     -11.43410155     -11.74307558
Br       0.93100788     -12.56360528     -12.84607077
C       -0.87307009     -10.37020900     -12.26353354
C       -0.89324889     -10.04922002     -13.73184041
C       -1.62322850      -9.57579137     -11.37395323
C       -3.87211895      -7.80732741      -5.98778527
C       -3.55441478      -8.58698990      -4.76734801
H       -2.63805546      -0.13151773      -2.88041325
H       -4.06368047      -1.54468261      -4.29616290
H       -2.53216091      -5.05230285      -2.28066750
H       -1.11663438      -3.63798965      -0.89418766
H       -4.71590456      -3.68819414      -4.98704615
H       -6.18179017      -5.36676963      -5.50296738
H       -6.15675685      -6.89674914      -4.61701840
H       -2.91407997      -8.22588821      -9.64366174
H       -0.85037770     -11.14381941      -8.44890155
H        0.44728612     -12.51926424      -9.96070973
H       -1.55326314      -9.20269801     -13.94890847
H       -1.26342170     -10.90436789     -14.30644707
H        0.10990734      -9.77884668     -14.07686506
H       -2.20544298      -8.74725826     -11.77198577
H       -4.10743452      -8.25690286      -3.88836730
H       -2.48526587      -8.51116601      -4.54166484
H       -3.79860787      -9.64323415      -4.91752220
C       -1.79120621       1.79120621       1.79120621
C       -2.88242188       2.45736342       1.23830712
C       -3.68742478       3.26677100       2.04776284
C       -3.38501197       3.43742129       3.40352525
C       -2.29528784       2.74855638       3.94640425
C       -1.50101640       1.92380468       3.14474415
N       -4.21643588       4.28744777       4.16618639
C       -3.87679646       4.85682803       5.38249864
O       -2.76129384       4.80588616       5.89852397
C       -4.98739530       5.62800560       6.05253727
N       -5.85393724       4.76696358       6.82778232
N       -7.15397400       4.67061924       6.47985130
N       -7.76761751       3.93876360       7.39861887
C       -6.83846246       3.56008279       8.33888869
C       -7.16012963       2.74726641       9.51275097
O       -6.28942804       2.39852151      10.30162818
N       -8.50835654       2.45253189       9.60831552
C       -9.15284517       1.69656957      10.60839687
C       -8.49126571       1.10729005      11.68548953
C       -9.19937537       0.36465493      12.63479350
C      -10.58001860       0.20371531      12.51700750
Br     -11.45925576      -0.82737071      13.84678311
C      -11.27122074       0.78851505      11.44707684
C      -12.75729749       0.63911061      11.27790122
C      -10.54097827       1.53265098      10.49934385
C       -5.60167810       4.07910710       7.98644644
C       -4.28793929       3.95785721       8.66295619
H       -3.11104125       2.35844345       0.18050174
H       -4.52804401       3.78370829       1.59277368
H       -2.04886304       2.81401733       5.00225088
H       -0.66199085       1.39591562       3.59090522
H       -5.07995303       4.58529559       3.72589623
H       -5.58525029       6.16128695       5.30498993
H       -4.56306305       6.37576055       6.73170079
H       -9.08520127       2.83343813       8.86499052
H       -7.41907797       1.19992435      11.82409635
H       -8.65540203      -0.08468374      13.46196957
H      -13.11864842       1.18577257      10.40044863
H      -13.28486222       1.04002531      12.14934914
H      -13.02123971      -0.41418822      11.13875291
H      -11.07190026       1.98728802       9.66549872
H       -3.50481908       4.55339163       8.19449396
H       -3.96181663       2.91219748       8.66408263
H       -4.36354539       4.29407784       9.70174100
C        1.79120621      -1.79120621       1.79120621
C        2.06534586      -3.10263008       1.41011649
C        2.87149911      -3.90946102       2.22099849
C        3.37865917      -3.41802044       3.42927890
C        3.10722144      -2.09381476       3.78921226
C        2.31860884      -1.27924289       2.97171350
N        4.16402856      -4.28576421       4.22027727
C        4.43214828      -4.11535200       5.56862285
O        3.91754661      -3.26030119       6.28785617
C        5.39745568      -5.11690220       6.15358028
N        6.77513412      -4.72588674       5.94766228
N        7.57308195      -5.52357238       5.20779021
N        8.80355698      -5.03491506       5.26652795
C        8.78151454      -3.90542538       6.05049403
C        9.96916704      -3.10336831       6.34761167
O        9.89288606      -2.07961545       7.01707623
N       11.12566916      -3.63639144       5.80714335
C       12.43427893      -3.12114711       5.90238557
C       12.75996015      -1.94560636       6.57847878
C       14.08210471      -1.49386645       6.62285263
C       15.09502344      -2.21511774       5.99060024
Br      16.86010445      -1.52366280       6.09490091
C       14.79704375      -3.40220394       5.30756494
C       15.85488473      -4.21013420       4.60929039
C       13.45882932      -3.84168102       5.27246276
C        7.48545645      -3.68822803       6.49354716
C        6.93940024      -2.61311585       7.35623660
H        1.65300303      -3.50730860       0.48967482
H        3.06455692      -4.93201322       1.90795584
H        3.51608454      -1.65449053       4.69455619
H        2.12518269      -0.25233934       3.27128965
H        4.45424881      -5.15356599       3.78333005
H        5.23417581      -6.10603683       5.71131453
H        5.23190623      -5.20560083       7.23301734
H       10.99895225      -4.49838354       5.28629413
H       12.01131205      -1.34599254       7.08579407
H       14.30441801      -0.57260577       7.15566408
H       15.43546731      -5.11416132       4.15524100
H       16.62374802      -4.53101101       5.31947764
H       16.31466978      -3.62413118       3.80700345
H       13.22118249      -4.76147993       4.74202458
H        5.88896478      -2.75458701       7.60915289
H        7.03853780      -1.64392571       6.85563321
H        7.48988872      -2.56836117       8.30111433
C       -0.00445707       0.01189536      -1.78238275
H       -0.66409135       0.67374010      -2.43557963
H        0.65740317      -0.63156657      -2.45157240
C       -0.90989263      -0.90692880      -0.91072765
C        0.90977584       0.90977584      -0.90977584
C       -0.00465871       1.77757030       0.00794375
H       -0.66225468       2.44313916      -0.64384735
H        0.64322798       2.43503045       0.67728295
C       -1.78241447       0.00034974      -0.00472694
H       -2.45427497      -0.65498947       0.64260836
H       -2.43311707       0.67328779      -0.65473579
C       -0.91132561       0.90220522       0.91563759
C       -0.01476271      -0.02253852       1.78660255
H       -0.67934791      -0.69751639       2.42135241
H        0.63392994       0.61504881       2.47327442
C        0.01484550      -1.77751727      -0.01636693
H        0.67870853      -2.42144646      -0.68295456
H       -0.62264859      -2.45592969       0.64226336
C        1.78714474       0.01002794       0.00389507
H        2.44202412       0.67113390       0.66197326
H        2.45385902      -0.65136977      -0.64189061
C        0.91606151      -0.90478549       0.90901405
