198
Properties=species:S:1:pos:R:3 pbc="F F F"
C        1.79119297       1.79119297      -1.79119297
C        1.67591310       3.17628940      -1.72131139
C        2.47909595       3.97960942      -2.53620246
C        3.38575066       3.40482963      -3.43727073
C        3.49825313       2.01351664      -3.48756557
C        2.70500144       1.20689368      -2.66348467
N        4.12925073       4.28640421      -4.24710958
C        4.97533709       3.95910676      -5.29502196
O        5.22017052       2.82855549      -5.70863081
C        5.57369343       5.16662683      -5.98037691
N        6.53011986       5.82083402      -5.11936027
N        6.11423377       6.79984230      -4.29311132
N        7.16353592       7.20002478      -3.58987785
C        8.25599385       6.45527227      -3.97755531
C        9.58300082       6.61503748      -3.38599683
O       10.48976617       5.82788517      -3.64035665
N        9.67847818       7.71233029      -2.55264033
C       10.81694896       8.16685691      -1.84535999
C       12.06435733       7.54169846      -1.93557745
C       13.16021250       8.00882781      -1.20252405
C       13.03340874       9.10908279      -0.35378026
C       14.22094136       9.59917867       0.42040578
C       11.80006841       9.76440046      -0.27879096
C       10.70335228       9.29533623      -1.01487183
Br       9.05951730      10.23963245      -0.84634159
C        7.86983001       5.57914190      -4.98091107
C        8.61152410       4.57178901      -5.77634709
H        0.96502204       3.64055218      -1.04304265
H        2.36958746       5.05936293      -2.46814587
H        4.20293410       1.51951893      -4.14935543
H        2.81047952       0.12623128      -2.71637667
H        4.03344302       5.27473867      -4.02685955
H        4.78824987       5.88093006      -6.24927005
H        6.07842593       4.86116967      -6.90171717
H        8.82459213       8.25020642      -2.42759408
H       12.23202852       6.67853400      -2.57147543
H       14.11478299       7.49482258      -1.30021654
H       13.91162968      10.19340446       1.28625010
H       14.85934224      10.21513893      -0.22012547
H       14.80600187       8.75420796       0.79924076
H       11.69268753      10.63857857       0.35971614
H        8.47055129       4.74867554      -6.84771950
H        8.26111641       3.56256568      -5.54150037
H        9.68708294       4.60528864      -5.58793728
C       -1.79119297      -1.79119297      -1.79119297
C       -2.95118187      -1.26789218      -2.35443984
C       -3.75987960      -2.08082244      -3.15420579
C       -3.42546355      -3.42315090      -3.37923657
C       -2.25206909      -3.93064377      -2.81662249
C       -1.43341948      -3.11559304      -2.02636727
N       -4.31499285      -4.18106935      -4.16670232
C       -4.27320711      -5.54466284      -4.41159586
O       -3.44604969      -6.33941586      -3.97189127
C       -5.42095696      -6.03468205      -5.26505816
N       -5.28646283      -5.56153999      -6.62231132
N       -5.84745011      -4.38796570      -6.97177157
N       -5.54575684      -4.16507591      -8.24260581
C       -4.77722136      -5.21442578      -8.69717429
C       -4.24349943      -5.28444566     -10.05609003
O       -3.43322256      -6.14929634     -10.37548908
N       -4.74809701      -4.30562731     -10.88972448
C       -4.46346481      -4.10432833     -12.26137272
C       -3.61165548      -4.94091837     -12.98905939
C       -3.33833908      -4.69467112     -14.33855416
C       -3.90438716      -3.59958528     -14.99229936
C       -3.60404898      -3.35440867     -16.44125660
C       -4.78425200      -2.77325019     -14.28575764
C       -5.05760310      -3.02220644     -12.93375079
Br      -6.25792899      -1.84244060     -12.04512174
C       -4.62233097      -6.13555274      -7.67199927
C       -3.92659172      -7.44206525      -7.59100324
H       -3.23777766      -0.23496903      -2.17587019
H       -4.66372500      -1.65246994      -3.58090132
H       -1.93485991      -4.95576458      -2.98118396
H       -0.52301785      -3.52967900      -1.60039062
H       -5.06814214      -3.65897439      -4.60792471
H       -6.37561019      -5.68488732      -4.85795246
H       -5.44051544      -7.12852494      -5.27227238
H       -5.39390208      -3.64736893     -10.46112162
H       -3.13349873      -5.80643916     -12.54210007
H       -2.66994629      -5.36940490     -14.87047092
H       -3.79341323      -2.31126114     -16.71410968
H       -4.22467186      -4.00126085     -17.06867392
H       -2.54900995      -3.55870774     -16.65325139
H       -5.25249208      -1.93008223     -14.78897565
H       -4.61052447      -8.22014417      -7.23627769
H       -3.07870792      -7.38409514      -6.90237940
H       -3.54799628      -7.77067703      -8.56163555
C       -1.79119297       1.79119297       1.79119297
C       -3.11714791       1.43614876       2.02021722
C       -3.92321517       2.25046912       2.82122354
C       -3.41605864       3.43127400       3.38051838
C       -2.08009385       3.76816248       3.15107901
C       -1.26684249       2.94803871       2.36049859
N       -4.30681007       4.21197770       4.14397675
C       -4.08158170       5.47186034       4.67602376
O       -3.05472638       6.13708546       4.56554498
C       -5.28121586       6.03824651       5.40123481
N       -5.52204798       5.31881731       6.62944885
N       -6.33963429       4.24851358       6.61903951
N       -6.35784977       3.74929086       7.84629792
C       -5.53283504       4.51635935       8.63962704
C       -5.29569553       4.23428279      10.05405680
O       -4.43393092       4.83856384      10.68551322
N       -6.12792041       3.25515348      10.56037492
C       -6.18017750       2.76279131      11.88619706
C       -5.37000116       3.26012236      12.91150972
C       -5.43625260       2.73078628      14.20452548
C       -6.30961685       1.68414932      14.50250563
C       -6.37079703       1.13282330      15.89609392
C       -7.14947645       1.19895680      13.49482657
C       -7.08225462       1.73134199      12.19996373
Br      -8.25308678       1.00590188      10.88650267
C       -5.00630139       5.54748867       7.87609292
C       -4.09297811       6.67038633       8.19629577
H       -3.53439838       0.53466601       1.57955250
H       -4.95737645       1.95612609       2.98359371
H       -1.63178808       4.65808222       3.58193816
H       -0.22900844       3.22714638       2.19693265
H       -5.21542783       3.79299211       4.32662130
H       -6.17369583       5.97514580       4.76960835
H       -5.11144071       7.09304481       5.63682725
H       -6.77244569       2.83363165       9.89631529
H       -4.66492639       4.06870180      12.74840976
H       -4.78905976       3.14540357      14.97535877
H       -6.79208847       0.12242189      15.90427368
H       -6.98830257       1.77748890      16.52881516
H       -5.36567599       1.06862155      16.32667153
H       -7.85306481       0.39999138      13.71849377
H       -4.54020090       7.62537839       7.90136703
H       -3.14159055       6.55444945       7.66914247
H       -3.87770028       6.73738138       9.26522720
C        1.79119297      -1.79119297       1.79119297
C        1.61498714      -3.17162699       1.78689976
C        2.41867671      -3.97445582       2.60177530
C        3.38720570      -3.40263423       3.43801109
C        3.56004259      -2.01669482       3.42259794
C        2.76600217      -1.21138917       2.59798846
N        4.12781976      -4.28117325       4.25377152
C        5.03194186      -3.94757046       5.24995349
O        5.34183459      -2.81247115       5.60305108
C        5.60856298      -5.15032247       5.96181173
N        6.49811199      -5.88129349       5.09090866
N        6.00577418      -6.87494407       4.32646913
N        7.00558599      -7.34980658       3.59804598
C        8.14423251      -6.63798473       3.90660419
C        9.43620762      -6.88034453       3.26748297
O       10.38544554      -6.12366324       3.44889920
N        9.44902205      -8.01474268       2.47968407
C       10.53538266      -8.54792204       1.74586116
C       11.81066006      -7.97472950       1.75624368
C       12.85282688      -8.51970382       0.99903367
C       12.64297119      -9.64797460       0.20532600
C       13.77388347     -10.22161072      -0.59577994
C       11.38113788     -10.25124812       0.21087383
C       10.33832534      -9.70417785       0.97105715
Br       8.65054055     -10.58185342       0.91309736
C        7.83943334      -5.70449061       4.88595904
C        8.65681991      -4.69810027       5.60474002
H        0.85624800      -3.63236107       1.16000781
H        2.26111503      -5.05028444       2.58569678
H        4.31310861      -1.52669965       4.03200020
H        2.91891521      -0.13511278       2.59905949
H        3.98110545      -5.27273231       4.08120347
H        4.80638135      -5.81765812       6.29441050
H        6.16550299      -4.82888603       6.84692375
H        8.56867880      -8.51949838       2.41421545
H       12.04205015      -7.09382702       2.34616079
H       13.83147121      -8.04432910       1.03402180
H       13.40232553     -10.83751140      -1.42105289
H       14.41331857     -10.83752290       0.04376516
H       14.37671741      -9.41968705      -1.03543539
H       11.20935122     -11.14589233      -0.38369359
H        8.55558342      -4.82356687       6.68779603
H        8.33909549      -3.68524268       5.34084429
H        9.72074965      -4.78651609       5.37304312
C       -0.00445707       0.01189536      -1.78238275
H       -0.66409135       0.67374010      -2.43557963
H        0.65740317      -0.63156657      -2.45157240
C       -0.90989263      -0.90692880      -0.91072765
C        0.90977584       0.90977584      -0.90977584
C       -0.00465871       1.77757030       0.00794375
H       -0.66225468       2.44313916      -0.64384735
H        0.64322798       2.43503045       0.67728295
C       -1.78241447       0.00034974      -0.00472694
H       -2.45427497      -0.65498947       0.64260836
H       -2.43311707       0.67328779      -0.65473579
C       -0.91132561       0.90220522       0.91563759
C       -0.01476271      -0.02253852       1.78660255
H       -0.67934791      -0.69751639       2.42135241
H        0.63392994       0.61504881       2.47327442
C        0.01484550      -1.77751727      -0.01636693
H        0.67870853      -2.42144646      -0.68295456
H       -0.62264859      -2.45592969       0.64226336
C        1.78714474       0.01002794       0.00389507
H        2.44202412       0.67113390       0.66197326
H        2.45385902      -0.65136977      -0.64189061
C        0.91606151      -0.90478549       0.90901405
