177
Properties=species:S:1:pos:R:3 pbc="F F F"
C        0.00000000       0.00000000       0.00000000
C        0.88135827       0.88135827      -0.88135827
C        2.26999557       0.75336207      -0.82282993
C        3.08599527       1.54463403      -1.64167077
C        2.51180377       2.46962008      -2.51266915
N        3.24125168       3.31053433      -3.37671858
C        4.60405896       3.29950529      -3.62706369
O        5.41623107       2.49913231      -3.17493390
C        5.03797602       4.39608145      -4.57778446
N        4.98635379       5.67385522      -3.90696763
N        3.80295630       6.31799736      -3.82998951
N        3.96088944       7.35308640      -3.01879477
C        5.27287404       7.38511100      -2.61218015
C        5.80066717       8.37071762      -1.67247918
O        6.99946654       8.42842474      -1.42529506
N        4.81237908       9.14870422      -1.09768963
C        4.97786667      10.13229159      -0.10031030
C        6.22264280      10.58750632       0.33534222
C        6.31474881      11.54096755       1.35229600
C        5.16076944      12.04876489       1.94793416
Br       5.38197130      13.31942241       3.34148902
C        3.89597705      11.61880547       1.52205762
C        2.62784542      12.12464512       2.15062963
C        3.82164502      10.66436643       0.48819243
C        5.95739505       6.32978670      -3.20051144
C        7.37315617       5.90805304      -3.07606925
C        1.11519014       2.59339977      -2.53635603
F        0.54816088       3.48280644      -3.36760867
C        0.29439545       1.80458675      -1.73844508
H        2.73220157       0.04035550      -0.14356249
H        4.16241236       1.42488030      -1.56204726
H        2.68138060       4.02526619      -3.84212698
H        4.38024534       4.42999599      -5.45315820
H        6.05333784       4.20724546      -4.93375477
H        3.86484490       8.92262373      -1.37951398
H        7.15074122      10.22731757      -0.09632743
H        7.29943734      11.87248066       1.67265656
H        1.74179529      11.70646710       1.66153754
H        2.56240441      13.21382294       2.06381957
H        2.58660256      11.83577396       3.20603236
H        2.84327126      10.32006920       0.15841734
H        7.63143058       5.07557904      -3.73417125
H        7.58722133       5.60038029      -2.04753439
H        8.03838893       6.73990040      -3.33063887
H       -0.78228730       1.92031034      -1.80133228
C       -0.88135827      -0.88135827      -0.88135827
C       -0.50372574      -1.14315979      -2.19930204
C       -1.29655794      -1.96620228      -3.00953986
C       -2.47143378      -2.51999063      -2.50266859
N       -3.33671000      -3.35940630      -3.23238828
C       -3.14181420      -3.89225570      -4.49655802
O       -2.13445596      -3.77011508      -5.18572623
C       -4.32286352      -4.70747692      -4.98150148
N       -5.41741174      -3.82879117      -5.32097374
N       -6.22660889      -3.39043702      -4.33389726
N       -7.02141170      -2.46373990      -4.84761901
C       -6.73684820      -2.34667449      -6.18664250
C       -7.39222391      -1.38383520      -7.06780486
O       -7.18604081      -1.39145804      -8.27568749
N       -8.19005341      -0.48511620      -6.38360330
C       -8.89437305       0.60998544      -6.92608095
C       -9.02218712       0.84306626      -8.29568604
C       -9.70616968       1.96736249      -8.76461316
C      -10.26869492       2.87430511      -7.86721037
Br     -11.15490470       4.38846550      -8.59346548
C      -10.16656848       2.65928912      -6.48544554
C      -10.74010032       3.62186434      -5.48362493
C       -9.48214870       1.51477870      -6.03044902
C       -5.72824067      -3.24207078      -6.51738175
C       -5.04944908      -3.49749567      -7.81033372
C       -2.83898282      -2.22372980      -1.18223331
F       -3.96993974      -2.74703647      -0.68159978
C       -2.05380827      -1.41935881      -0.36426021
H        0.40699846      -0.71288632      -2.61023170
H       -0.97679359      -2.13978958      -4.03275675
H       -4.22057341      -3.56297970      -2.76522066
H       -4.65658367      -5.40304161      -4.20377425
H       -4.04010347      -5.29887401      -5.85536061
H       -8.19793525      -0.59366676      -5.37538060
H       -8.60603020       0.16760309      -9.03595912
H       -9.78496255       2.12343024      -9.83772913
H      -10.59672854       3.26746404      -4.45746037
H      -11.81710630       3.74224794      -5.63754941
H      -10.24479794       4.59491906      -5.56646528
H       -9.39196961       1.34608618      -4.95903969
H       -4.34426176      -4.33033063      -7.76658847
H       -4.49727960      -2.60792476      -8.12993165
H       -5.78739760      -3.73887759      -8.58265301
H       -2.36617995      -1.23032774       0.65715238
C       -0.88135827       0.88135827       0.88135827
C       -0.33660802       1.50418637       2.00539317
C       -1.13315657       2.32988212       2.80926139
C       -2.47680354       2.52500379       2.49228567
N       -3.36124300       3.33443173       3.23282985
C       -3.06331518       4.17004624       4.29726652
O       -1.94512296       4.39820747       4.74696685
C       -4.28924097       4.84165057       4.88095039
N       -5.07034420       3.87736808       5.61946436
N       -5.92561474       3.08193099       4.94339743
N       -6.37701997       2.16731204       5.78843860
C       -5.83026060       2.41574828       7.02415630
C       -6.07209771       1.57682275       8.19494351
O       -5.65315754       1.89975571       9.30027309
N       -6.75466545       0.41319709       7.89091038
C       -7.07560604      -0.63896633       8.77382885
C       -6.89055033      -0.57072344      10.15498000
C       -7.19897378      -1.66391091      10.96835748
C       -7.69430737      -2.84079313      10.40808592
Br      -8.05874279      -4.28482576      11.58598766
C       -7.90200916      -2.93384690       9.02456263
C       -8.41441693      -4.18990924       8.37735322
C       -7.59523162      -1.81806422       8.22065162
C       -5.01099377       3.53403827       6.94266115
C       -4.18165638       4.20080441       7.97481767
C       -3.00446490       1.87054563       1.36993540
F       -4.29799114       2.04610899       1.05447586
C       -2.22095464       1.05949506       0.55697759
H        0.70850768       1.35612302       2.26850422
H       -0.67801461       2.79000431       3.68132100
H       -4.33903257       3.25794412       2.95179707
H       -4.91191068       5.26579090       4.08569795
H       -3.99309172       5.65981819       5.54142817
H       -6.97384478       0.28385310       6.90928473
H       -6.51099334       0.32178473      10.64160816
H       -7.03967723      -1.58111297      12.04069719
H       -8.54887445      -4.06046023       7.29831064
H       -9.38731250      -4.46902547       8.79412074
H       -7.70230224      -5.00888609       8.52292802
H       -7.74623292      -1.88629882       7.14498902
H       -3.70728030       5.11710407       7.61679650
H       -3.39053861       3.52651196       8.31808543
H       -4.79917193       4.47219033       8.83756594
H       -2.66515131       0.58640022      -0.31219621
C        0.88135827      -0.88135827       0.88135827
C        1.98051388      -0.32675146       1.53892223
C        2.78377603      -1.12376422       2.36475983
C        2.49128194      -2.47750135       2.52530972
N        3.23344053      -3.36333279       3.33173126
C        4.27383582      -3.06116748       4.19562464
O        4.69500321      -1.93898141       4.45631265
C        4.86926586      -4.28866953       4.85390654
N        5.64389964      -5.03378965       3.88948735
N        5.00264487      -5.88586972       3.06242857
N        5.87576857      -6.30028149       2.15672056
C        7.09425957      -5.73344894       2.44245668
C        8.28699506      -5.93324521       1.62362371
O        9.37631370      -5.49844635       1.97842629
N        8.02157940      -6.59722644       0.43996708
C        8.93265326      -6.87754208      -0.59972678
C       10.30788072      -6.66544116      -0.49851498
C       11.15002814      -6.93381704      -1.58042482
C       10.62480570      -7.41566594      -2.77887147
Br      11.83975789      -7.72507942      -4.20493262
C        9.24819862      -7.64992809      -2.90540181
C        8.63807469      -8.14896956      -4.18518333
C        8.41508094      -7.38347882      -1.80074074
C        6.97236596      -4.93984502       3.57548222
C        7.97276382      -4.10360384       4.28091080
C        1.39410353      -3.01432384       1.83651857
F        1.10247090      -4.31751769       1.97858740
C        0.58172822      -2.23084099       1.02485808
H        2.22449873       0.72647684       1.41809767
H        3.63632445      -0.66050184       2.85251363
H        2.97476437      -4.34489237       3.22911703
H        4.07873947      -4.93647414       5.24818593
H        5.50627724      -3.99626892       5.69179192
H        7.04768734      -6.83388187       0.28541340
H       10.76781918      -6.29483525       0.41173179
H       12.21682213      -6.75415881      -1.47171950
H        7.55966606      -8.30842108      -4.08136228
H        9.08098162      -9.10692442      -4.47549826
H        8.78548494      -7.41685758      -4.98599836
H        7.34448908      -7.55522174      -1.89478770
H        7.58592734      -3.65619334       5.19906018
H        8.31311940      -3.29149013       3.63052647
H        8.84256418      -4.70873650       4.55762752
H       -0.26789850      -2.68282917       0.52442465
