137
Properties=species:S:1:pos:R:3 pbc="F F F"
C        0.00000000       0.00000000       0.00000000
C        0.88154258       0.88154258      -0.88154258
C        2.17303605       1.20349349      -0.46676319
C        2.98140867       2.01093272      -1.27169089
C        2.49969469       2.50951574      -2.49218974
C        3.35158539       3.39061960      -3.36992875
S        3.82943821       4.95884815      -2.58692021
C        2.22630395       5.62460772      -2.34672778
N        1.50183301       5.86067694      -3.39080817
C        0.21650345       6.38322732      -3.19873345
C       -0.58482043       6.61597695      -4.31884425
C       -1.87565665       7.13398277      -4.17558520
C       -2.37042113       7.42139886      -2.90430274
C       -1.58808658       7.19676836      -1.77447312
C       -0.29803825       6.67782732      -1.93407711
C        0.56140511       6.42367256      -0.76550656
O        0.17015915       6.68639066       0.37091677
N        1.81735304       5.88466549      -1.04160654
N        2.65486186       5.59517741       0.08803484
C        1.20241530       2.16207366      -2.88512176
F        0.71416106       2.60919125      -4.05070880
C        0.39054344       1.35629769      -2.09293785
H        2.55916140       0.83618213       0.48103848
H        3.98549162       2.26070222      -0.93253740
H        2.85492392       3.60689584      -4.32189555
H        4.26802259       2.84503220      -3.62270787
H       -0.19923389       6.38902324      -5.31036180
H       -2.48324741       7.30676510      -5.06116459
H       -1.96962251       7.41797393      -0.78074059
H        3.35322417       6.33960920       0.13089278
H        2.06711442       5.73717444       0.91907632
H       -0.61045136       1.11245885      -2.43354993
C       -3.70055482       7.95346034      -2.75851199
C       -4.81454179       8.39906184      -2.63641224
Br      -6.61576449       9.11956177      -2.43898728
C       -0.88154258      -0.88154258      -0.88154258
C       -2.26494197      -0.86915175      -0.70919901
C       -3.07372452      -1.67587423      -1.51443352
C       -2.50318502      -2.50747135      -2.49074380
C       -3.35686594      -3.39304842      -3.36221938
S       -4.29850232      -4.64060764      -2.43609661
C       -2.94938163      -5.51255416      -1.73570366
N       -2.11992445      -6.09697685      -2.53641682
C       -1.03570306      -6.78540720      -1.97735394
C       -0.11823571      -7.39701095      -2.83475412
C        0.98097043      -8.09275939      -2.32212236
C        1.16586286      -8.17817914      -0.94296419
C        0.26309895      -7.57562134      -0.07063251
C       -0.83223122      -6.88269742      -0.59893754
C       -1.80940388      -6.22957704       0.28839669
O       -1.69434829      -6.30238862       1.51110388
N       -2.84684829      -5.54901051      -0.34776627
N       -3.78829519      -4.87443766       0.50072842
C       -1.11254707      -2.49165474      -2.64540891
F       -0.53425187      -3.26301852      -3.57679072
C       -0.29849927      -1.68994400      -1.85133571
H       -2.72391001      -0.24027472       0.04987968
H       -4.15211848      -1.66207412      -1.36453863
H       -2.75803059      -3.89767079      -4.12801394
H       -4.07134816      -2.76161493      -3.90279957
H       -0.26154353      -7.32776788      -3.91083975
H        1.68390466      -8.56089968      -3.00768727
H        0.40338551      -7.63814268       1.00566517
H       -4.62895453      -5.45459396       0.52160790
H       -3.40382589      -4.93340195       1.45201529
H        0.77589311      -1.70920194      -2.00224859
C        2.29923449      -8.89386503      -0.41678697
C        3.24843323      -9.49325197       0.02388644
Br       4.78320731     -10.46240994       0.73641808
C       -0.88154258       0.88154258       0.88154258
C       -0.75163910       2.26840127       0.82325235
C       -1.55693737       3.07722575       1.62986916
C       -2.49062884       2.50368083       2.50709051
C       -3.36115043       3.35780494       3.39317837
S       -2.42769618       4.36364544       4.58386495
C       -1.66139964       3.06275093       5.47348888
N       -2.41907428       2.22819360       6.10605024
C       -1.80740660       1.18224417       6.80881344
C       -2.61825123       0.25891161       7.47283794
C       -2.05230393      -0.80315305       8.18476045
C       -0.66626084      -0.94472894       8.23374856
C        0.16021359      -0.03537343       7.57874191
C       -0.42119247       1.02244334       6.87023036
C        0.41652916       2.00505025       6.16206314
O        1.64377370       1.92826538       6.20114135
N       -0.27052102       3.00223511       5.47086894
N        0.52884738       3.94735571       4.74349611
C       -2.60347989       1.10925519       2.53687564
F       -3.49381949       0.52745761       3.35278401
C       -1.80902602       0.29499376       1.73575920
H       -0.02564213       2.73022831       0.15843462
H       -1.44026124       4.15864815       1.57982184
H       -4.09327331       2.75227249       3.93816951
H       -3.94147113       4.03661585       2.75767568
H       -3.69975619       0.36834400       7.43205096
H       -2.70218717      -1.51143739       8.69393251
H        1.24164116      -0.14198472       7.61271788
H        0.54129652       4.80546001       5.29777710
H        1.49267065       3.59299496       4.78488824
H       -1.92667997      -0.78229517       1.79117262
C       -0.08515845      -2.03992605       8.96618512
C        0.40151481      -2.95715363       9.57960073
Br       1.18842430      -4.44023304      10.57144190
C        0.88154258      -0.88154258       0.88154258
C        0.67667181      -0.90628705       2.26033386
C        1.48293592      -1.71183408       3.06926227
C        2.50566520      -2.49043604       2.50529893
C        3.39316864      -3.35771459       3.36125050
S        4.37540958      -2.42655321       4.57324378
C        5.29930206      -1.44410263       3.45423476
N        6.08625410      -2.04423597       2.62282805
C        6.81717370      -1.25993270       1.72135781
C        7.64946178      -1.90020617       0.80033283
C        8.39586460      -1.15855325      -0.12050652
C        8.31034637       0.23293624      -0.12212966
C        7.48666219       0.89103341       0.78752612
C        6.74568982       0.13486206       1.70303842
C        5.86115405       0.79117735       2.68060754
O        5.77651057       2.01765837       2.72678084
N        5.15440071      -0.06142267       3.52780169
N        4.25854702       0.55908185       4.46253927
C        2.68123733      -2.45075053       1.11762286
F        3.63946462      -3.19146564       0.54313085
C        1.88209436      -1.65482779       0.30285683
H       -0.10299047      -0.30090969       2.71638583
H        1.31699976      -1.71634780       4.14538367
H        4.06871415      -3.96537154       2.74962962
H        2.76077624      -4.06542812       3.90955831
H        7.71375393      -2.98609682       0.80030040
H        9.03708299      -1.67732260      -0.82972331
H        7.41536648       1.97589214       0.78961766
H        4.72325862       0.53331007       5.37199204
H        4.23093707       1.55465131       4.20892679
H        2.05304781      -1.65120602      -0.76869641
C        9.07862272       0.99508848      -1.07211673
C        9.72205416       1.63339097      -1.86773089
Br      10.76242839       2.66547212      -3.15417171
