117
Properties=species:S:1:pos:R:3 pbc="F F F"
C        0.00000000       0.00000000       0.00000000
C        0.88171776       0.88171776      -0.88171776
C        0.92678203       2.25840067      -0.65742091
C        1.73689378       3.06751272      -1.45879145
C        2.49652137       2.49075036      -2.48144959
C        3.35586271       3.36129706      -3.30924905
N        4.05490052       2.88126832      -4.29029186
N        4.81771076       3.78228717      -4.96254911
C        5.79261724       3.42441363      -5.87888507
O        6.61891864       4.25755902      -6.24462251
C        5.86415796       2.03430968      -6.40558131
C        7.14470496       1.52267057      -6.66826870
C        7.28956210       0.24674023      -7.21305327
Br       9.01935412      -0.44048126      -7.54413424
C        6.17162969      -0.52519703      -7.52154730
C        4.89567811      -0.01490582      -7.28495426
C        4.74463765       1.25444415      -6.72682383
O        3.45597685       1.66993150      -6.53813130
C        2.44557026       1.11022978      -2.70580361
C        1.63633708       0.30412819      -1.90217018
H        0.33701430       2.70785748       0.13805106
H        1.76546314       4.13833489      -1.27403302
H        3.37416484       4.43596071      -3.05223703
H        4.88921884       4.73857818      -4.62528163
H        8.02313137       2.12635627      -6.44921648
H        6.28008280      -1.51776564      -7.95108874
H        4.01645558      -0.60508641      -7.53226823
H        3.49050754       2.32884783      -5.80889952
H        3.03348376       0.65234422      -3.49876067
H        1.60375071      -0.76800666      -2.07948051
C       -0.88171776      -0.88171776      -0.88171776
C       -1.24515606      -0.44206741      -2.15538014
C       -2.04728419      -1.24883820      -2.96707556
C       -2.48107923      -2.49189491      -2.49574718
C       -3.31774861      -3.33503007      -3.37363014
N       -3.77255674      -4.48127390      -2.97263006
N       -4.51420571      -5.16784499      -3.88049634
C       -4.88628325      -6.49194450      -3.71768819
O       -5.31659246      -7.12553766      -4.67897005
C       -4.74647559      -7.16160031      -2.39597305
C       -4.40318229      -8.52268036      -2.40978158
C       -4.30579130      -9.23132561      -1.21223869
Br      -3.82310579     -11.05896328      -1.24093802
C       -4.56640889      -8.60734542       0.00577436
C       -4.93045265      -7.26143218       0.02615828
C       -5.01529341      -6.54374777      -1.16686446
O       -5.38510516      -5.23323673      -1.04569776
C       -2.11775021      -2.92754656      -1.21630688
C       -1.31466344      -2.11975560      -0.40821642
H       -0.90776086       0.52411355      -2.52317342
H       -2.32287891      -0.89698769      -3.95796444
H       -3.53524333      -2.94328085      -4.38383840
H       -4.59825778      -4.82209255      -4.83272833
H       -4.21742991      -9.02345642      -3.35781778
H       -4.49680709      -9.15732618       0.94072737
H       -5.14649604      -6.76789002       0.97074865
H       -5.01690676      -4.77641763      -1.83493050
H       -2.44999554      -3.89344183      -0.84115128
H       -1.03320082      -2.46540997       0.58338623
C       -0.88171776       0.88171776       0.88171776
C       -0.31224798       1.58868913       1.94166650
C       -1.11521156       2.40089204       2.74709436
C       -2.48536758       2.49835211       2.48500163
C       -3.31462886       3.37173506       3.34004490
N       -4.59481275       3.47210594       3.15954200
N       -5.24058071       4.32172971       4.00023662
C       -6.55133658       4.72911769       3.81546166
O       -6.98378643       5.69169988       4.44561385
C       -7.43312193       4.02796485       2.84296217
C       -8.36625128       4.81713083       2.15226212
C       -9.26253882       4.22319371       1.26362307
Br     -10.50168016       5.29780937       0.32351757
C       -9.25815666       2.84420769       1.06561560
C       -8.34963501       2.05080937       1.76528218
C       -7.44118479       2.64046177       2.64425908
O       -6.59528052       1.78081359       3.28794554
C       -3.05341499       1.78467243       1.42351622
C       -2.24804013       0.97519208       0.61940324
H        0.75327739       1.51418286       2.14591526
H       -0.66066045       2.94825697       3.56891363
H       -2.79298657       3.93295771       4.13641830
H       -4.70824065       4.89953695       4.64530105
H       -8.39039296       5.89266628       2.31564488
H       -9.95842507       2.37690904       0.37807179
H       -8.34528256       0.97234050       1.62601435
H       -5.79927695       2.31017792       3.51880003
H       -4.11842654       1.85463253       1.21152958
H       -2.69487230       0.42598898      -0.20563671
C        0.88171776      -0.88171776       0.88171776
C        1.89784855      -1.64268921       0.30206584
C        2.71021222      -2.44634461       1.10664113
C        2.49772560      -2.48267143       2.48832429
C        3.37499604      -3.32866220       3.32275058
N        3.19971432      -3.42259863       4.60414774
N        4.08417536      -4.21828582       5.26008586
C        4.19654956      -4.25947502       6.63989135
O        5.18089096      -4.78556378       7.15464543
C        3.14904341      -3.65075841       7.50424713
C        3.58275664      -3.05422714       8.69866044
C        2.65401490      -2.50971152       9.58562918
Br       3.25039428      -1.69080377      11.18180904
C        1.28962535      -2.56814400       9.31021061
C        0.84940835      -3.17950810       8.13681010
C        1.77409135      -3.71283351       7.23898078
O        1.24663181      -4.29647474       6.12093310
C        1.47508294      -1.72112298       3.06539774
C        0.66605584      -0.91769865       2.25888096
H        2.06441895      -1.61461676      -0.77221499
H        3.49966486      -3.03359732       0.64456886
H        4.18417949      -3.87409808       2.80408501
H        4.87749541      -4.61338675       4.76219649
H        4.64515591      -3.02183838       8.93170983
H        0.56238334      -2.14976834      10.00125421
H       -0.21400753      -3.23993490       7.91771005
H        1.94896016      -4.24480713       5.43448760
H        1.30252741      -1.74248920       4.13957203
H       -0.12448043      -0.32597411       2.71373088
