125
Properties=species:S:1:pos:R:3 pbc="F F F"
C        0.00000000       0.00000000       0.00000000
C        0.88171776       0.88171776      -0.88171776
C        0.92678203       2.25840067      -0.65742091
C        1.73689378       3.06751272      -1.45879145
C        2.49652137       2.49075036      -2.48144959
C        3.35586271       3.36129706      -3.30924905
N        4.05490052       2.88126832      -4.29029186
N        4.81771076       3.78228717      -4.96254911
C        5.79261724       3.42441363      -5.87888507
O        6.61891864       4.25755902      -6.24462251
C        5.86415796       2.03430968      -6.40558131
C        7.14470496       1.52267057      -6.66826870
C        7.28956210       0.24674023      -7.21305327
C        6.17162969      -0.52519703      -7.52154730
C        4.89567811      -0.01490582      -7.28495426
C        4.74463765       1.25444415      -6.72682383
O        3.45597685       1.66993150      -6.53813130
C        2.44557026       1.11022978      -2.70580361
C        1.63633708       0.30412819      -1.90217018
H        0.33701430       2.70785748       0.13805106
H        1.76546314       4.13833489      -1.27403302
H        3.37416484       4.43596071      -3.05223703
H        4.88921884       4.73857818      -4.62528163
H        8.02313137       2.12635627      -6.44921648
H        6.28008280      -1.51776564      -7.95108874
H        4.01645558      -0.60508641      -7.53226823
H        3.49050754       2.32884783      -5.80889952
H        3.03348376       0.65234422      -3.49876067
H        1.60375071      -0.76800666      -2.07948051
C        8.60713590      -0.27671289      -7.46523596
C        9.71060396      -0.71510488      -7.67643897
Br      11.49481848      -1.42394765      -8.01793637
C       -0.88171776      -0.88171776      -0.88171776
C       -1.02948577      -0.57744981      -2.23566802
C       -1.83110639      -1.38543204      -3.04665953
C       -2.48079839      -2.49369242      -2.49423051
C       -3.31346165      -3.34226499      -3.37068219
N       -3.96248877      -4.36224901      -2.90172291
N       -4.67706795      -5.07206177      -3.81341731
C       -5.24044016      -6.30884223      -3.54663355
O       -5.63527070      -7.01054794      -4.47528153
C       -5.34930016      -6.80647950      -2.14826928
C       -5.19294747      -8.18802047      -1.95467628
C       -5.33409160      -8.73569621      -0.67956779
C       -5.65068011      -7.92718891       0.40988906
C       -5.83026510      -6.55723054       0.22176908
C       -5.67609290      -6.00153866      -1.04827407
O       -5.87803573      -4.65217554      -1.13382838
C       -2.33328371      -2.79323644      -1.13508349
C       -1.53015631      -1.98484870      -0.32763045
H       -0.52411439       0.28373806      -2.66644439
H       -1.93770968      -1.13991185      -4.10020951
H       -3.35525374      -3.06696231      -4.44014653
H       -4.60061879      -4.85000240      -4.80245747
H       -4.96538478      -8.83015562      -2.80316372
H       -5.76676421      -8.35078842       1.40414673
H       -6.08819412      -5.91909225       1.06364896
H       -5.36099639      -4.35242824      -1.91483027
H       -2.83442104      -3.65376246      -0.69640514
H       -1.41703124      -2.22487114       0.72667782
C       -5.15698611     -10.15172303      -0.48694983
C       -5.00866027     -11.33764550      -0.32563228
Br      -4.76882992     -13.25518182      -0.06479545
C       -0.88171776       0.88171776       0.88171776
C       -0.32823089       1.52442312       1.98994960
C       -1.13093910       2.33651770       2.79574115
C       -2.48485640       2.49834633       2.48551860
C       -3.31345551       3.37067596       3.34227736
N       -4.58067133       3.52871205       3.11707731
N       -5.22639473       4.37056977       3.96558254
C       -6.51222338       4.83653451       3.74715805
O       -6.93225977       5.79074741       4.39809299
C       -7.38080542       4.20871522       2.71452831
C       -8.25485955       5.06020814       2.02057654
C       -9.13715616       4.53681054       1.07538890
C       -9.17764864       3.16732440       0.82300692
C       -8.32868320       2.31224131       1.52480205
C       -7.43402205       2.83124655       2.46063704
O       -6.64788611       1.91464600       3.10150754
C       -3.03711852       1.84894508       1.37554005
C       -2.23195087       1.03942272       0.57126186
H        0.72469829       1.39984121       2.23167781
H       -0.68882973       2.83353811       3.65546321
H       -2.80281513       3.87983792       4.17970952
H       -4.69842085       4.90165281       4.65300500
H       -8.24432568       6.12881618       2.22556225
H       -9.86737890       2.75488502       0.09114197
H       -8.36004742       1.24056901       1.34302097
H       -5.84202963       2.40271628       3.38350898
H       -4.08940081       1.96926326       1.12592458
H       -2.66629527       0.54038314      -0.29145385
C      -10.01978007       5.41901880       0.35686011
C      -10.75897759       6.15786821      -0.24490776
Br     -11.95419747       7.35252523      -1.21791550
C        0.88171776      -0.88171776       0.88171776
C        1.98296129      -1.53406883       0.32557348
C        2.79522708      -2.33722726       1.13074362
C        2.49729502      -2.48209174       2.48933456
C        3.37517043      -3.32527480       3.32596359
N        3.12469192      -3.51820187       4.58356690
N        4.01774893      -4.29856631       5.24623180
C        4.04368910      -4.42724303       6.62498381
O        5.02672301      -4.92307129       7.17130587
C        2.90336545      -3.94806989       7.45261361
C        3.21728236      -3.40843679       8.70992509
C        2.19815612      -2.98709405       9.56410543
C        0.86156800      -3.11409989       9.19231207
C        0.54084458      -3.67036353       7.95451844
C        1.55585918      -4.08007992       7.08996654
O        1.14281321      -4.61816356       5.90306288
C        1.38969477      -1.82940782       3.04250107
C        0.58089152      -1.02613124       2.23561269
H        2.21597269      -1.42151844      -0.73067040
H        3.65128763      -2.83930152       0.68724190
H        4.25163886      -3.78055636       2.83016736
H        4.86674816      -4.60663057       4.77969993
H        4.25773936      -3.32387290       9.01709186
H        0.06432609      -2.79189806       9.85718175
H       -0.49959354      -3.78386564       7.65936530
H        1.88262784      -4.47433024       5.27129681
H        1.15027045      -1.93565950       4.09865869
H       -0.27609077      -0.51917802       2.67213732
C        2.52927902      -2.42050463      10.84587532
C        2.80659445      -1.94598599      11.91935760
Br       3.25499005      -1.17872949      13.65508766
