154
Properties=species:S:1:pos:R:3 pbc="F F F"
C        1.79109643       1.79109643      -1.79109643
C        2.55475989       1.21716086      -2.80360770
C        3.36273210       2.02545500      -3.61437096
C        3.43528627       3.40935499      -3.40568073
C        2.63881541       3.96454102      -2.39034549
C        1.82153325       3.16542149      -1.58565953
C        4.26848146       4.30227713      -4.21771961
N        3.90482263       5.64339640      -4.33961726
C        4.76320474       6.27354972      -5.09265511
S        6.03610852       5.34778476      -5.72818951
C        5.45914970       3.97360274      -4.85748600
C        6.25963976       2.71728008      -4.89227572
N        4.79948151       7.59329481      -5.43577980
C        3.95680898       8.57518669      -4.98501929
O        4.03971921       9.71867484      -5.42972637
C        3.00484581       8.32396559      -3.89799386
C        3.47999922       8.11687488      -2.59793224
C        2.56144080       7.91812219      -1.57471862
Br       3.14645356       7.57425805       0.18334928
C        1.20748618       7.95710197      -1.87769475
N        0.72124319       8.17737819      -3.12259276
C        1.63496370       8.35987768      -4.10893505
Cl       0.91743450       8.60585533      -5.65153745
H        2.52281470       0.14492682      -2.97933777
H        3.90956142       1.54501045      -4.41843428
H        2.64602300       5.03746980      -2.22080131
H        1.21638049       3.62753167      -0.81017207
H        5.82425601       2.00391735      -5.59851891
H        6.30083875       2.25559697      -3.90033489
H        7.29476113       2.89838448      -5.20179759
H        5.49346312       7.87899205      -6.11229041
H        4.54795032       8.09600585      -2.40116616
H        0.44957900       7.80493053      -1.11355462
C       -1.79109643      -1.79109643      -1.79109643
C       -1.51403706      -3.14995447      -1.91153692
C       -2.32347932      -3.96022851      -2.71885024
C       -3.40038199      -3.41729668      -3.43264332
C       -3.66951681      -2.04733379      -3.27685132
C       -2.87319999      -1.23567068      -2.46374359
C       -4.27575101      -4.21530035      -4.29742685
N       -5.58188466      -3.78150034      -4.52445128
C       -6.19946512      -4.61467564      -5.31526882
S       -5.31405489      -5.96848494      -5.82954295
C       -3.92770971      -5.36714071      -4.99538801
C       -2.63664943      -6.09798676      -5.13455937
N       -7.46775550      -4.54779305      -5.81300757
C       -8.35754949      -3.52047731      -5.63898816
O       -9.50482024      -3.61097113      -6.07232905
C       -7.94879199      -2.25267606      -5.02533721
C       -7.07942659      -1.40006282      -5.71531693
C       -6.73343107      -0.18630346      -5.13454709
Br      -5.51948220       0.97308002      -5.99096015
C       -7.28291017       0.14417258      -3.90354531
N       -8.14315125      -0.65262302      -3.22543988
C       -8.46081543      -1.83732955      -3.80563146
Cl      -9.53646387      -2.78317239      -2.85519101
H       -0.67874056      -3.59303539      -1.37530334
H       -2.09931968      -5.02087267      -2.75281380
H       -4.51511586      -1.59877759      -3.79040065
H       -3.11050605      -0.17981761      -2.36376056
H       -2.45122526      -6.72104479      -4.25442223
H       -1.80460181      -5.39665755      -5.25551126
H       -2.62893730      -6.75455782      -6.01144808
H       -7.80410347      -5.34332215      -6.33731996
H       -6.67254468      -1.69411297      -6.67846468
H       -7.04183823       1.08031261      -3.40653851
C       -1.79109643       1.79109643       1.79109643
C       -1.78161723       3.17269475       1.62121647
C       -2.59158895       3.98250348       2.42846564
C       -3.39839766       3.42329081       3.42863351
C       -3.40393044       2.02509070       3.56468077
C       -2.60730793       1.21054213       2.75476421
C       -4.25972629       4.22189921       4.30685271
N       -5.39203329       3.62964453       4.86615846
C       -6.02448212       4.49053964       5.61438781
S       -5.36093682       6.05050666       5.70063932
C       -4.04199077       5.53401705       4.71423062
C       -2.92318364       6.48505132       4.46096059
N       -7.14967497       4.31383164       6.36504951
C       -7.82681544       3.13753451       6.55266500
O       -8.87838516       3.11981765       7.18991761
C       -7.27689978       1.85857746       6.09132802
C       -6.14779708       1.32436436       6.72264490
C       -5.66390237       0.09364862       6.29673063
Br      -4.11170954      -0.64414845       7.06980122
C       -6.33385089      -0.56955716       5.27798917
N       -7.44073323      -0.08519400       4.66567492
C       -7.89146522       1.12217227       5.09013895
Cl      -9.28249373       1.65817990       4.23415365
H       -1.15737067       3.63118088       0.85852774
H       -2.58670313       5.04994758       2.23635544
H       -4.04081890       1.55494604       4.30852917
H       -2.63699139       0.13199310       2.88509974
H       -3.02039702       6.93704039       3.46925486
H       -1.95704364       5.97399947       4.52572751
H       -2.90207546       7.29880181       5.19406594
H       -7.54823703       5.13137125       6.80513731
H       -5.65309265       1.87358729       7.51844239
H       -5.99377985      -1.53316619       4.90745048
C        1.79109643      -1.79109643       1.79109643
C        1.89501561      -1.52668085       3.15383198
C        2.70232077      -2.33615303       3.96408427
C        3.43246961      -3.40022912       3.41762326
C        3.29323376      -3.65696408       2.04350407
C        2.48028236      -2.86066025       1.23167166
C        4.29803362      -4.27491745       4.21552714
N        4.54269713      -5.57421543       3.77092372
C        5.33132495      -6.19224471       4.60583991
S        5.82289724      -5.31552172       5.97366382
C        4.98077743      -3.93160241       5.37785859
C        5.09943306      -2.64671008       6.12305241
N        5.84259350      -7.45471009       4.53125252
C        5.68799650      -8.33571124       3.49330721
O        6.13205678      -9.47941973       3.57664391
C        5.08302074      -7.92027562       2.22350890
C        5.77267181      -7.03537156       1.38676297
C        5.20066807      -6.68291020       0.17070335
Br       6.05631914      -5.44865940      -0.96761622
C        3.97871368      -7.24137115      -0.17780193
N        3.30140514      -8.11646416       0.60334484
C        3.87283505      -8.44030725       1.79063413
Cl       2.92391003      -9.53504591       2.71587133
H        1.34587274      -0.70138124       3.59982531
H        2.72331451      -2.12246810       5.02722354
H        3.81985472      -4.49273800       1.59170138
H        2.39336145      -3.08820410       0.17251868
H        4.21122235      -2.47651229       6.73895764
H        5.21897036      -1.80639205       5.43140821
H        5.96953896      -2.63684654       6.78855770
H        6.36226075      -7.79383743       5.32864740
H        6.72861776      -6.62182090       1.69468367
H        3.48873538      -6.99580404      -1.11647527
C       -0.00445707       0.01189536      -1.78238275
H       -0.66409135       0.67374010      -2.43557963
H        0.65740317      -0.63156657      -2.45157240
C       -0.90989263      -0.90692880      -0.91072765
C        0.90977584       0.90977584      -0.90977584
C       -0.00465871       1.77757030       0.00794375
H       -0.66225468       2.44313916      -0.64384735
H        0.64322798       2.43503045       0.67728295
C       -1.78241447       0.00034974      -0.00472694
H       -2.45427497      -0.65498947       0.64260836
H       -2.43311707       0.67328779      -0.65473579
C       -0.91132561       0.90220522       0.91563759
C       -0.01476271      -0.02253852       1.78660255
H       -0.67934791      -0.69751639       2.42135241
H        0.63392994       0.61504881       2.47327442
C        0.01484550      -1.77751727      -0.01636693
H        0.67870853      -2.42144646      -0.68295456
H       -0.62264859      -2.45592969       0.64226336
C        1.78714474       0.01002794       0.00389507
H        2.44202412       0.67113390       0.66197326
H        2.45385902      -0.65136977      -0.64189061
C        0.91606151      -0.90478549       0.90901405
