90
Properties=species:S:1:pos:R:3 pbc="F F F"
C        1.82747215       1.82747215      -1.82747215
C        2.16865545       3.11523427      -1.08683388
N        2.82828592       4.13012677      -1.91868898
C        4.28960156       3.99581491      -2.01630784
C        4.83250771       2.95237513      -2.99032133
H        1.26209888       2.01285895      -2.74432183
H        2.70595527       1.22064579      -2.05095833
H        2.74731565       2.91132399      -0.17794152
H        1.22733444       3.56430018      -0.73935619
H        2.63069693       5.04509663      -1.50744706
H        4.71962249       3.82689883      -1.02176662
H        4.66992724       4.97336585      -2.33898119
H        4.57963905       1.92970665      -2.71055426
H        5.92096787       3.02802407      -3.05793502
C        4.34697364       3.16470916      -4.32926529
C        3.94033885       3.34253891      -5.45063085
Br       3.28284479       3.63007458      -7.26378413
C       -1.82747215      -1.82747215      -1.82747215
C       -2.93648576      -0.98601855      -2.44821929
N       -3.96998945      -1.76878448      -3.13832774
C       -3.66462287      -2.09836690      -4.53873454
C       -2.71594300      -3.26822410      -4.79103707
H       -2.21791978      -2.61882352      -1.18253635
H       -1.15247580      -2.25492859      -2.57015500
H       -2.52734378      -0.20682360      -3.10241378
H       -3.44650561      -0.44798130      -1.63650391
H       -4.83164616      -1.21846469      -3.13312978
H       -3.29623716      -1.20865566      -5.06339513
H       -4.62200823      -2.34527291      -5.01499315
H       -1.70426755      -3.08808759      -4.42754483
H       -2.66000768      -3.48609574      -5.86082353
C       -3.18509029      -4.48181938      -4.17403842
C       -3.57800114      -5.49820542      -3.65730205
Br      -4.21330477      -7.14161569      -2.82178305
C       -1.82747215       1.82747215       1.82747215
C       -1.74480496       1.35247691       3.27344173
N       -2.71843807       1.98753476       4.17112885
C       -2.28660795       3.27165920       4.74345716
C       -2.40927138       4.50905460       3.85687819
H       -2.84055426       1.75504452       1.42368087
H       -1.44636938       2.84038814       1.69080187
H       -0.72514991       1.44530878       3.66612248
H       -1.96678749       0.27591318       3.28829014
H       -2.88814564       1.34609428       4.94900070
H       -1.25932294       3.19046638       5.11849863
H       -2.91076346       3.44151524       5.62999559
H       -1.75931290       4.47815865       2.98242843
H       -2.16905753       5.40939821       4.42847121
C       -3.75642986       4.69938126       3.38513696
C       -4.88467509       4.85877985       2.99005368
Br      -6.70895220       5.11651387       2.35123743
C        1.82747215      -1.82747215       1.82747215
C        0.96263533      -2.84293749       2.56515078
N        1.67558929      -3.59714746       3.60436492
C        2.38102008      -4.79542136       3.12528287
C        3.73592822      -4.58706683       2.45220912
H        2.35325541      -1.15547278       2.51055146
H        2.53993759      -2.29269911       1.14492269
H        0.45419431      -3.51698918       1.86539767
H        0.15983990      -2.29375066       3.07740025
H        0.98612458      -3.90213302       4.29498303
H        1.72872501      -5.37685636       2.46270658
H        2.54721213      -5.42989783       4.00516432
H        3.67051192      -4.03434764       1.51504042
H        4.20875384      -5.55111501       2.24705811
C        4.65551624      -3.87999188       3.30543997
C        5.42567120      -3.28781661       4.02002081
Br       6.67094664      -2.33031927       5.17543758
C       -0.00445707       0.01189536      -1.78238275
H       -0.66409135       0.67374010      -2.43557963
H        0.65740317      -0.63156657      -2.45157240
C       -0.90989263      -0.90692880      -0.91072765
C        0.90977584       0.90977584      -0.90977584
C       -0.00465871       1.77757030       0.00794375
H       -0.66225468       2.44313916      -0.64384735
H        0.64322798       2.43503045       0.67728295
C       -1.78241447       0.00034974      -0.00472694
H       -2.45427497      -0.65498947       0.64260836
H       -2.43311707       0.67328779      -0.65473579
C       -0.91132561       0.90220522       0.91563759
C       -0.01476271      -0.02253852       1.78660255
H       -0.67934791      -0.69751639       2.42135241
H        0.63392994       0.61504881       2.47327442
C        0.01484550      -1.77751727      -0.01636693
H        0.67870853      -2.42144646      -0.68295456
H       -0.62264859      -2.45592969       0.64226336
C        1.78714474       0.01002794       0.00389507
H        2.44202412       0.67113390       0.66197326
H        2.45385902      -0.65136977      -0.64189061
C        0.91606151      -0.90478549       0.90901405
