82
Properties=species:S:1:pos:R:3 pbc="F F F"
C        1.82747215       1.82747215      -1.82747215
C        2.16865545       3.11523427      -1.08683388
N        2.82828592       4.13012677      -1.91868898
C        4.28960156       3.99581491      -2.01630784
C        4.83250771       2.95237513      -2.99032133
Br       4.17590588       3.23952061      -4.80101414
H        1.26209888       2.01285895      -2.74432183
H        2.70595527       1.22064579      -2.05095833
H        2.74731565       2.91132399      -0.17794152
H        1.22733444       3.56430018      -0.73935619
H        2.63069693       5.04509663      -1.50744706
H        4.71962249       3.82689883      -1.02176662
H        4.66992724       4.97336585      -2.33898119
H        4.57963905       1.92970665      -2.71055426
H        5.92096787       3.02802407      -3.05793502
C       -1.82747215      -1.82747215      -1.82747215
C       -2.03745438      -1.15442725      -3.17884197
N       -3.04492872      -1.80707696      -4.02509599
C       -2.53866386      -2.91837195      -4.84468849
C       -2.35249311      -4.26799796      -4.15471309
Br      -4.00006566      -4.89160512      -3.32476985
H       -2.76510562      -1.96998905      -1.28418499
H       -1.29633361      -2.77718012      -1.90404566
H       -1.08889158      -1.03234362      -3.71534597
H       -2.40241994      -0.13396488      -2.99460599
H       -3.41957559      -1.10102533      -4.66263970
H       -1.60338461      -2.62721859      -5.33768475
H       -3.26533558      -3.06261159      -5.65432712
H       -1.58369641      -4.25403143      -3.38217213
H       -2.08543573      -5.03395959      -4.88753164
C       -1.82747215       1.82747215       1.82747215
C       -2.06679349       1.13820562       3.16572448
N       -3.07701697       1.79324718       4.00683752
C       -2.56683707       2.88514458       4.84974266
C       -2.35124260       4.24169045       4.18227111
Br      -3.97740172       4.90112516       3.33791375
H       -2.75493706       1.99144314       1.27289945
H       -1.28391024       2.76813411       1.92551504
H       -1.12800889       0.99460173       3.71397054
H       -2.44366416       0.12592821       2.96139844
H       -3.47103237       1.08364317       4.62856509
H       -1.64312900       2.57332552       5.35183343
H       -3.30309091       3.02831373       5.65086965
H       -1.57154105       4.22761947       3.42073945
H       -2.08391846       4.99306284       4.92994566
C        1.82747215      -1.82747215       1.82747215
C        2.31500767      -3.02917773       1.02653821
N        2.98926174      -4.05511313       1.83272679
C        4.42603170      -3.82696869       2.04872392
C        4.81998871      -2.82417271       3.13104275
Br       4.06215094      -3.29129179       4.86299790
H        1.21505826      -2.12001246       2.68420894
H        2.64028131      -1.17935270       2.15792539
H        2.93869570      -2.71788154       0.18000393
H        1.43650838      -3.51545164       0.57903080
H        2.88995363      -4.94822619       1.34506080
H        4.91045377      -3.55442358       1.10341059
H        4.85513933      -4.79706193       2.33007303
H        4.51129644      -1.80353099       2.90507254
H        5.90368982      -2.82862573       3.27461141
C       -0.00445707       0.01189536      -1.78238275
H       -0.66409135       0.67374010      -2.43557963
H        0.65740317      -0.63156657      -2.45157240
C       -0.90989263      -0.90692880      -0.91072765
C        0.90977584       0.90977584      -0.90977584
C       -0.00465871       1.77757030       0.00794375
H       -0.66225468       2.44313916      -0.64384735
H        0.64322798       2.43503045       0.67728295
C       -1.78241447       0.00034974      -0.00472694
H       -2.45427497      -0.65498947       0.64260836
H       -2.43311707       0.67328779      -0.65473579
C       -0.91132561       0.90220522       0.91563759
C       -0.01476271      -0.02253852       1.78660255
H       -0.67934791      -0.69751639       2.42135241
H        0.63392994       0.61504881       2.47327442
C        0.01484550      -1.77751727      -0.01636693
H        0.67870853      -2.42144646      -0.68295456
H       -0.62264859      -2.45592969       0.64226336
C        1.78714474       0.01002794       0.00389507
H        2.44202412       0.67113390       0.66197326
H        2.45385902      -0.65136977      -0.64189061
C        0.91606151      -0.90478549       0.90901405
