141
Properties=species:S:1:pos:R:3 pbc="F F F"
C        0.00000000       0.00000000       0.00000000
O        1.87466134       7.72848832      -0.91719229
C        2.57026896       6.71616547      -0.94969396
C        2.04368040       5.38863831      -1.41118841
C        2.69051791       4.24270781      -0.63486428
H        2.37122728       4.32709696       0.41477846
C        2.17499489       2.91542932      -1.18508671
C        2.48486371       2.49039535      -2.48923586
C        2.00106221       1.27526341      -2.97805507
C        1.19763987       0.46896082      -2.17404844
C        0.88208387       0.88208387      -0.88208387
C        1.36324853       2.09451873      -0.38517347
C        4.20620159       4.38942083      -0.59739723
C        5.04769500       3.28798420      -0.41433496
C        6.43085391       3.45312833      -0.29985645
Br       7.44171021       1.84927625      -0.07588264
C        7.02946660       4.73553011      -0.34150436
C        8.42865499       4.94159019      -0.23266497
C        8.99644278       6.21400554      -0.27534606
C        8.18151538       7.31963936      -0.43108479
C        6.80070250       7.15003056      -0.54017025
C        6.18668720       5.87035090      -0.49390645
C        4.77681470       5.67407869      -0.60823854
N        3.90720046       6.77858198      -0.68022396
H        2.23943587       5.32381601      -2.48885144
H        0.95607517       5.37427892      -1.26987101
H        3.11504913       3.10096269      -3.13389999
H        2.25178317       0.95759789      -3.98728764
H        0.82411835      -0.47473773      -2.56252180
H        1.10467825       2.40042275       0.62628796
H        4.62785339       2.28550817      -0.34858938
H        9.10945425       4.10192589      -0.11236467
H       10.07364191       6.33305604      -0.19035793
H        8.61387275       8.31627963      -0.47318664
H        6.21267970       8.05262018      -0.67940590
H        4.24734382       7.71098776      -0.49352981
O       -6.43628238       0.63375294      -4.71781251
C       -5.38783280       0.00827409      -4.85656968
C       -4.61282563      -0.53768237      -3.69299912
C       -3.11022859      -0.49216319      -3.96569821
H       -2.81428815       0.56541858      -4.03467621
C       -2.37112706      -1.11840203      -2.78598184
C       -2.49148750      -2.48698378      -2.48602364
C       -1.81172265      -3.04243028      -1.40022777
C       -1.00559320      -2.23934405      -0.59571187
C       -0.88208387      -0.88208387      -0.88208387
C       -1.55676960      -0.31937655      -1.96679457
C       -2.78012724      -1.08226066      -5.33063175
C       -1.51914118      -1.61403868      -5.61683430
C       -1.20930703      -2.07517561      -6.89935604
Br       0.54614714      -2.79174377      -7.12127248
C       -2.14563794      -2.00199976      -7.95886338
C       -1.86845575      -2.46312420      -9.27133021
C       -2.80565992      -2.38020419     -10.29993026
C       -4.05055366      -1.83560641     -10.04607946
C       -4.35354566      -1.37220040      -8.76515725
C       -3.42196404      -1.43390874      -7.69507178
C       -3.71297427      -0.96994291      -6.37621476
N       -4.93601336      -0.33042891      -6.09956413
H       -4.97344145      -1.55929309      -3.51936877
H       -4.85332733       0.05518966      -2.80208744
H       -3.11132582      -3.13516591      -3.10342008
H       -1.91127961      -4.10305841      -1.18233067
H       -0.48091098      -2.67921186       0.24822042
H       -1.44849806       0.74318625      -2.17350123
H       -0.75872821      -1.66408692      -4.83913581
H       -0.90423173      -2.90212967      -9.51738341
H       -2.55805124      -2.74564900     -11.29335564
H       -4.79201488      -1.77261335     -10.83871079
H       -5.35277454      -0.97177254      -8.62015870
H       -5.54919667      -0.05090154      -6.85176319
O       -0.89221006       7.72427452       1.90385737
C       -1.71927211       6.84597164       1.67088464
C       -1.46823502       5.39826046       1.97701163
C       -2.13332711       4.49545630       0.93930658
H       -1.63689672       4.67315681      -0.02650775
C       -1.90766779       3.03730841       1.33053472
C       -2.48480425       2.48964786       2.49004281
C       -2.26420050       1.15485624       2.83532395
C       -1.46108777       0.34870442       2.03085692
C       -0.88208387       0.88208387       0.88208387
C       -1.09916113       2.21494835       0.52883125
C       -3.58614884       4.89353910       0.71333172
C       -4.53269009       3.98263478       0.23468928
C       -5.84085871       4.38773943      -0.04475945
Br      -7.01679047       3.02001202      -0.66993338
C       -6.25141538       5.73236574       0.12271995
C       -7.57039611       6.17925888      -0.14674483
C       -7.95243764       7.50891478       0.02444196
C       -7.02674047       8.43214080       0.47335825
C       -5.72060317       8.02382376       0.74647638
C       -5.29386633       6.67996901       0.57710921
C       -3.96398076       6.24009794       0.85505324
N       -2.97126462       7.16501605       1.22972575
H       -1.84592311       5.21537210       2.99080811
H       -0.38523068       5.22506500       1.98992942
H       -3.12013792       3.09864141       3.13113247
H       -2.71990487       0.74382609       3.73293773
H       -1.29337551      -0.68880698       2.30733389
H       -0.63708414       2.61351806      -0.37178916
H       -4.25324701       2.94411399       0.06458994
H       -8.33351364       5.48860230      -0.49837113
H       -8.97326822       7.81448577      -0.19069812
H       -7.31533088       9.47035676       0.61765138
H       -5.04230914       8.78851914       1.11387751
H       -3.14120872       8.15757666       1.15307602
O        3.42124542       0.13702349       7.23612001
C        2.84515071      -0.76232317       6.62865451
C        2.85309095      -0.85946065       5.13095552
C        1.53205927      -1.42451768       4.61151305
H        0.74108749      -0.69639235       4.84606594
C        1.61427668      -1.56729547       3.09393877
C        2.49091904      -2.48510830       2.48846759
C        2.55648761      -2.59945411       1.09843897
C        1.75138552      -1.79659246       0.29267114
C        0.88208387      -0.88208387       0.88208387
C        0.80910564      -0.76290022       2.27093487
C        1.13902313      -2.68811313       5.36588340
C        0.29860238      -3.65151322       4.79989856
C       -0.11725360      -4.76331778       5.53777450
Br      -1.24450695      -5.99676808       4.61460797
C        0.27451175      -4.94596141       6.88602792
C       -0.12424153      -6.06267354       7.66447814
C        0.27290597      -6.22167011       8.99121828
C        1.08388378      -5.26912451       9.57923124
C        1.49257929      -4.15840692       8.83991710
C        1.10217116      -3.95972321       7.48905018
C        1.51264692      -2.83323052       6.71325449
N        2.26540937      -1.79933678       7.30126026
H        3.71064948      -1.48601130       4.85544254
H        3.02565694       0.14084166       4.71540982
H        3.12573247      -3.12661778       3.09756155
H        3.23643586      -3.31610758       0.64412526
H        1.80939566      -1.89091597      -0.78840921
H        0.12461035      -0.04176692       2.71243577
H       -0.04987229      -3.53712098       3.77470225
H       -0.75905359      -6.83914842       7.24364999
H       -0.05122155      -7.09188428       9.55639314
H        1.40593369      -5.38641649      10.61098884
H        2.14374762      -3.45295857       9.34799960
H        2.38771896      -1.76112716       8.30301528
