149
Properties=species:S:1:pos:R:3 pbc="F F F"
C        0.00000000       0.00000000       0.00000000
C        0.88172358       0.88172358      -0.88172358
C        1.19768634       2.17456604      -0.47238550
C        2.00221480       2.98221507      -1.28006266
C        2.48401117       2.51116477      -2.51432453
C        2.16463489       1.19788057      -2.90094266
C        1.36622845       0.38774862      -2.09000900
C        3.37364553       3.35750717      -3.41388292
H        3.27869554       3.00016759      -4.44887681
C        4.84905283       3.23853146      -2.97856931
C        5.70401909       4.29732594      -3.69447094
H        5.65207658       4.13606423      -4.77994833
N        5.16895583       5.62617158      -3.41280334
C        3.83543192       5.81135137      -3.53325410
N        3.13426824       6.90007049      -3.73463414
N        1.82299092       6.48753169      -3.86688586
N        1.72092192       5.16737627      -3.76024750
N        2.96609925       4.75382335      -3.48397250
C        7.15538647       4.21124692      -3.26206395
C        8.08747652       3.53873873      -4.06988049
C        9.42489789       3.43128596      -3.67968581
C        9.85000383       3.99222518      -2.47675939
C        8.93332967       4.65603089      -1.66474907
C        7.59503608       4.76306475      -2.04602226
H        0.81999473       2.56610099       0.46922458
H        2.23145030       3.99086780      -0.93673828
H        2.53013506       0.79249182      -3.84205152
H        1.12449389      -0.62228384      -2.41010786
H        4.93144024       3.36904990      -1.89047579
H        5.22158196       2.22911590      -3.19578529
H        5.75562671       6.40400920      -3.71042568
H        7.78186563       3.09139565      -5.01408544
H       10.13708299       2.91004616      -4.31490472
H       10.89215030       3.90683570      -2.18158574
H        6.88987716       5.28178769      -1.39874195
C        9.36984465       5.23648311      -0.42131436
C        9.73542595       5.72261184       0.62006222
Br      10.32653999       6.50864089       2.30388006
C       -0.88172358      -0.88172358      -0.88172358
C       -1.51366158      -0.33529496      -1.99568133
C       -2.32234285      -1.14117036      -2.80097931
C       -2.52182333      -2.49791916      -2.48975797
C       -1.86258889      -3.03198978      -1.36887944
C       -1.04817799      -2.22799990      -0.56780818
C       -3.38467599      -3.40909719      -3.35126244
H       -3.74267768      -4.24757128      -2.73749097
C       -2.56462877      -3.96970052      -4.53182431
C       -3.49258149      -4.65393589      -5.54929858
H       -4.01276515      -5.49118787      -5.06413611
N       -4.50206257      -3.70214486      -6.00372332
C       -5.14450857      -2.96529180      -5.07023702
N       -6.30568088      -2.35866980      -5.10462219
N       -6.49910038      -1.83808651      -3.84022158
N       -5.48026570      -2.12920052      -3.03907947
N       -4.60557877      -2.77266003      -3.82565630
C       -2.70672142      -5.19218317      -6.72979275
C       -2.36313441      -6.55347109      -6.77949024
C       -1.62261276      -7.06482277      -7.84843413
C       -1.21332348      -6.22391108      -8.88175385
C       -1.54294810      -4.87117557      -8.83998596
C       -2.27830832      -4.35276334      -7.77305142
H       -1.38892391       0.71606293      -2.24401015
H       -2.80721014      -0.68693635      -3.66490990
H       -1.98061099      -4.08047068      -1.10359674
H       -0.55298724      -2.65806448       0.29873382
H       -2.00995565      -3.15800515      -5.02300513
H       -1.81072382      -4.67563661      -4.16012271
H       -5.06595725      -4.00964899      -6.79445536
H       -2.66996723      -7.23195827      -5.98542121
H       -1.36488334      -8.12085347      -7.87629706
H       -0.64015162      -6.62956720      -9.71085291
H       -2.52492426      -3.29254141      -7.75294112
C       -1.12129029      -4.00007184      -9.90628000
C       -0.76815187      -3.27052246     -10.79930125
Br      -0.19715693      -2.09090281     -12.24324109
C       -0.88172358       0.88172358       0.88172358
C       -2.05736638       1.42108810       0.36618340
C       -2.86282504       2.22979177       1.17187572
C       -2.49113671       2.52218794       2.49617582
C       -1.30771049       1.95528106       3.00046656
C       -0.50604012       1.14074547       2.19720048
C       -3.35005536       3.38784991       3.40713036
H       -2.71349250       3.82514524       4.18910220
C       -4.45053225       2.53878067       4.07684067
C       -5.48079560       3.44813195       4.76688842
H       -4.98170134       4.04015364       5.54623415
N       -6.04202151       4.37627770       3.78963154
C       -5.18725474       5.02506239       2.96772026
N       -5.31981271       6.14649857       2.30266159
N       -4.09811653       6.37760783       1.70168410
N       -3.22610704       5.42129924       2.00113941
N       -3.92626324       4.54356446       2.73406740
C       -6.58433943       2.63188320       5.41247471
C       -6.54146948       2.36377958       6.79084669
C       -7.53781198       1.59718625       7.40087143
C       -8.58987149       1.08613642       6.64298050
C       -8.63939774       1.34037958       5.27433231
C       -7.64514455       2.10131961       4.65765892
H       -2.35422003       1.22387455      -0.66122345
H       -3.77593110       2.64115488       0.74197040
H       -0.99372841       2.14654515       4.02440485
H        0.40895879       0.71786137       2.60341532
H       -4.95230346       1.91349946       3.32516301
H       -3.99942915       1.84707474       4.79997925
H       -6.84580373       4.91349393       4.11076393
H       -5.73083415       2.75066324       7.40584932
H       -7.49439652       1.39855982       8.46907753
H       -9.36224236       0.49325106       7.12507831
H       -7.69588420       2.28821353       3.58630906
C       -9.72524874       0.81352165       4.48887172
C      -10.63464896       0.37227814       3.83104848
Br     -12.10507219      -0.34117530       2.76740394
C        0.88172358      -0.88172358       0.88172358
C        0.35747072      -1.44493214       2.04223502
C        1.16466612      -2.24952232       2.85030409
C        2.51007136      -2.48415995       2.51526916
C        3.01427769      -1.91748409       1.33169634
C        2.20516883      -1.11893845       0.51987879
C        3.41518855      -3.36579703       3.36405005
H        4.46142915      -3.07986679       3.18644399
C        3.23235318      -4.84989349       2.98390693
C        3.92402012      -5.75481351       4.01698234
H        5.00019661      -5.53449711       4.03339542
N        3.38874159      -5.47339510       5.34579407
C        3.27637818      -4.18035685       5.72330237
N        3.22038905      -3.63494961       6.91363421
N        3.20263241      -2.26995566       6.70482039
N        3.25835337      -1.98067598       5.40951634
N        3.23496143      -3.17276548       4.79616820
C        3.73594141      -7.22005963       3.67269630
C        4.76011662      -7.92128791       3.01469121
C        4.59864224      -9.26605981       2.67116761
C        3.41177798      -9.92898325       2.97822718
C        2.38703325      -9.24206423       3.62501215
C        2.53969463      -7.89756226       3.96686619
H       -0.67477817      -1.26096981       2.33067949
H        0.72952672      -2.67520957       3.75432010
H        4.04600154      -2.08744139       1.03123548
H        2.61582653      -0.68389555      -0.38740418
H        2.16240519      -5.09562416       2.93293658
H        3.63691899      -5.03002712       1.97953703
H        3.66696261      -6.12804706       6.07505193
H        5.69698035      -7.42733285       2.76303352
H        5.39978265      -9.79831326       2.16393796
H        3.29486288     -10.97541930       2.71028955
H        1.72816454      -7.37340622       4.46883604
C        1.15967040      -9.92456228       3.94340944
C        0.13175401     -10.49615440       4.21006717
Br      -1.53029986     -11.42037051       4.64123017
