162
Properties=species:S:1:pos:R:3 pbc="F F F"
C        1.79162761       1.79162761      -1.79162761
C        2.10759036       3.08447006      -1.38228953
C        2.91211882       3.89211909      -2.18996668
C        3.39391520       3.42106879      -3.42422855
C        3.07453891       2.10778460      -3.81084668
C        2.27613248       1.29765264      -2.99991302
C        4.28354956       4.26741119      -4.32378695
H        4.18859956       3.91007161      -5.35878083
C        5.75895686       4.14843548      -3.88847333
C        6.61392312       5.20722996      -4.60437496
H        6.56198060       5.04596825      -5.68985235
N        6.07885986       6.53607560      -4.32270737
C        4.74533594       6.72125540      -4.44315812
N        4.04417227       7.80997451      -4.64453817
N        2.73289495       7.39743572      -4.77678988
N        2.63082594       6.07728030      -4.67015152
N        3.87600328       5.66372737      -4.39387652
C        8.06529050       5.12115094      -4.17196797
C        8.99738055       4.44864276      -4.97978451
C       10.33480192       4.34118999      -4.58958983
C       10.75990786       4.90212921      -3.38666342
C        9.84323369       5.56593492      -2.57465310
Br      10.41608547       6.32767987      -0.94285622
C        8.50494010       5.67296877      -2.95592628
H        1.72989875       3.47600501      -0.44067944
H        3.14135433       4.90077183      -1.84664230
H        3.44003909       1.70239585      -4.75195554
H        2.03439791       0.28762018      -3.32001188
H        5.84134427       4.27895392      -2.80037982
H        6.13148598       3.13901992      -4.10568932
H        6.66553074       7.31391323      -4.62032970
H        8.69176966       4.00129967      -5.92398946
H       11.04698702       3.81995018      -5.22480875
H       11.80205432       4.81673972      -3.09148976
H        7.79978119       6.19169171      -2.30864597
C       -1.79162761      -1.79162761      -1.79162761
C       -2.01250541      -1.44091447      -3.12093007
C       -2.82114332      -2.24605793      -3.92700334
C       -3.43202722      -3.40073046      -3.40645486
C       -3.18359599      -3.74360717      -2.06596702
C       -2.36918634      -2.94254035      -1.26197145
C       -4.30793493      -4.30875206      -4.25806070
H       -4.99359027      -4.86246112      -3.60140062
C       -3.43989265      -5.31830014      -5.03767289
C       -4.28492744      -6.04032505      -6.10027555
H       -5.09649357      -6.59340329      -5.60790434
N       -4.89046010      -5.05541922      -6.99176351
C       -5.49358425      -3.98182312      -6.43434209
N       -6.41999502      -3.17971669      -6.89897324
N       -6.72560573      -2.31507067      -5.86644414
N       -6.00816503      -2.58784180      -4.78225094
N       -5.19189308      -3.58256026      -5.15915383
C       -3.44319478      -7.02173657      -6.89347806
C       -3.46916520      -8.38822420      -6.56841841
C       -2.68606262      -9.30544567      -7.27407345
C       -1.86483138      -8.87095262      -8.31291649
C       -1.82633166      -7.51750090      -8.63998915
Br      -0.71390466      -6.92476830     -10.04794860
C       -2.60229030      -6.59522479      -7.93632007
H       -1.56575993      -0.54187978      -3.53894349
H       -2.97946490      -1.94645577      -4.96284779
H       -3.62675447      -4.63683555      -1.63080046
H       -2.19528842      -3.22081429      -0.22592725
H       -2.60134978      -4.79800927      -5.52131895
H       -2.99304848      -6.04070347      -4.34244327
H       -5.33973744      -5.43775200      -7.82228423
H       -4.10153987      -8.75411101      -5.76140790
H       -2.71671702     -10.36086462      -7.01416431
H       -1.26095336      -9.59064087      -8.85868958
H       -2.55845770      -5.54020153      -8.20145964
C       -1.79162761       1.79162761       1.79162761
C       -1.77924836       3.17356390       1.62153770
C       -2.58390619       3.98053527       2.42976314
C       -3.39566932       3.41465893       3.42888430
C       -3.40347105       2.01635280       3.57334633
C       -2.60442847       1.20888969       2.76037998
C       -4.29506491       4.26096479       4.31871800
H       -4.48989524       3.71505806       5.25249870
C       -5.63927715       4.54138764       3.61520088
C       -6.42837939       5.61661134       4.38053731
H       -6.64087960       5.25941776       5.39750384
N       -5.61978564       6.82719315       4.49066404
C       -4.33231887       6.69637852       4.88105207
N       -3.51059591       7.55547138       5.43261766
N       -2.35227361       6.85327486       5.70157208
N       -2.46367312       5.58205607       5.33252857
N       -3.67289975       5.50191062       4.75879680
C       -7.74433651       5.92293691       3.69113599
C       -8.93213857       5.33571306       4.15795619
C      -10.15151502       5.58951405       3.52455267
C      -10.20174776       6.43171357       2.41523915
C       -9.02938051       7.01464040       1.93980079
Br      -9.09371498       8.15706677       0.43583980
C       -7.80731683       6.76181973       2.56469860
H       -1.14456325       3.63398540       0.86803456
H       -2.55249120       5.05919326       2.27708399
H       -4.02877749       1.54008504       4.32552795
H       -2.61907442       0.13030108       2.89265448
H       -5.46086744       4.87607643       2.58373414
H       -6.22162711       3.61392312       3.54064498
H       -6.11048927       7.64836613       4.84091827
H       -8.92090641       4.67393071       5.02222166
H      -11.06426234       5.13056299       3.89692061
H      -11.15411647       6.62632373       1.92984360
H       -6.89916107       7.22199152       2.17896628
C        1.79162761      -1.79162761       1.79162761
C        2.05417343      -1.41421869       3.10595783
C        2.86283246      -2.21942686       3.91194528
C        3.43215128      -3.40137352       3.40568775
C        3.14198032      -3.77053460       2.08065527
C        2.32750556      -2.96920554       1.27698704
C        4.30666764      -4.30996846       4.25811159
H        4.96197120      -4.89650965       3.59897116
C        3.43402114      -5.27816846       5.08367608
C        4.28749864      -5.99495997       6.14306943
H        5.07276034      -6.58001121       5.64502965
N        4.93898861      -5.00404815       6.99460607
C        5.55399844      -3.95979236       6.39595866
N        6.51103476      -3.17000846       6.81764172
N        6.81173218      -2.33872668       5.75666168
N        6.06095855      -2.61984169       4.69745752
N        5.23034088      -3.58434173       5.11892456
C        3.44217210      -6.93536700       6.98087032
C        3.42665560      -8.30960101       6.68955121
C        2.63929997      -9.18945961       7.43682216
C        1.85515286      -8.70934589       8.48420173
C        1.85787999      -7.34777737       8.77816434
Br       0.79580744      -6.69323176      10.19758236
C        2.63826904      -6.46264008       8.03292603
H        1.64009103      -0.49436065       3.51213152
H        3.05427382      -1.89869336       4.93580128
H        3.55219057      -4.68491869       1.65728121
H        2.12101277      -3.26823916       0.25277804
H        2.62078096      -4.72542277       5.57447427
H        2.95243604      -6.00591828       4.41784089
H        5.39943421      -5.37711973       7.82321973
H        4.02953350      -8.71077053       5.87675475
H        2.63768386     -10.25134239       7.20271970
H        1.24773341      -9.40017529       9.06237511
H        2.62683616      -5.40069555       8.27258717
C       -0.00445707       0.01189536      -1.78238275
H       -0.66409135       0.67374010      -2.43557963
H        0.65740317      -0.63156657      -2.45157240
C       -0.90989263      -0.90692880      -0.91072765
C        0.90977584       0.90977584      -0.90977584
C       -0.00465871       1.77757030       0.00794375
H       -0.66225468       2.44313916      -0.64384735
H        0.64322798       2.43503045       0.67728295
C       -1.78241447       0.00034974      -0.00472694
H       -2.45427497      -0.65498947       0.64260836
H       -2.43311707       0.67328779      -0.65473579
C       -0.91132561       0.90220522       0.91563759
C       -0.01476271      -0.02253852       1.78660255
H       -0.67934791      -0.69751639       2.42135241
H        0.63392994       0.61504881       2.47327442
C        0.01484550      -1.77751727      -0.01636693
H        0.67870853      -2.42144646      -0.68295456
H       -0.62264859      -2.45592969       0.64226336
C        1.78714474       0.01002794       0.00389507
H        2.44202412       0.67113390       0.66197326
H        2.45385902      -0.65136977      -0.64189061
C        0.91606151      -0.90478549       0.90901405
