170
Properties=species:S:1:pos:R:3 pbc="F F F"
C        1.79162761       1.79162761      -1.79162761
C        2.10759036       3.08447006      -1.38228953
C        2.91211882       3.89211909      -2.18996668
C        3.39391520       3.42106879      -3.42422855
C        3.07453891       2.10778460      -3.81084668
C        2.27613248       1.29765264      -2.99991302
C        4.28354956       4.26741119      -4.32378695
H        4.18859956       3.91007161      -5.35878083
C        5.75895686       4.14843548      -3.88847333
C        6.61392312       5.20722996      -4.60437496
H        6.56198060       5.04596825      -5.68985235
N        6.07885986       6.53607560      -4.32270737
C        4.74533594       6.72125540      -4.44315812
N        4.04417227       7.80997451      -4.64453817
N        2.73289495       7.39743572      -4.77678988
N        2.63082594       6.07728030      -4.67015152
N        3.87600328       5.66372737      -4.39387652
C        8.06529050       5.12115094      -4.17196797
C        8.99738055       4.44864276      -4.97978451
C       10.33480192       4.34118999      -4.58958983
C       10.75990786       4.90212921      -3.38666342
C        9.84323369       5.56593492      -2.57465310
C        8.50494010       5.67296877      -2.95592628
H        1.72989875       3.47600501      -0.44067944
H        3.14135433       4.90077183      -1.84664230
H        3.44003909       1.70239585      -4.75195554
H        2.03439791       0.28762018      -3.32001188
H        5.84134427       4.27895392      -2.80037982
H        6.13148598       3.13901992      -4.10568932
H        6.66553074       7.31391323      -4.62032970
H        8.69176966       4.00129967      -5.92398946
H       11.04698702       3.81995018      -5.22480875
H       11.80205432       4.81673972      -3.09148976
H        7.79978119       6.19169171      -2.30864597
C       10.27974868       6.14638714      -1.33121838
C       10.64532998       6.63251587      -0.28984181
Br      11.23644402       7.41854491       1.39397603
C       -1.79162761      -1.79162761      -1.79162761
C       -1.84429036      -1.56550549      -3.16455410
C       -2.65280197      -2.37041098      -3.97099164
C       -3.43114752      -3.39832063      -3.40974439
C       -3.35146070      -3.61815207      -2.02355742
C       -2.53747324      -2.81806039      -1.21816451
C       -4.31283891      -4.30340610      -4.25850269
H       -5.11400595      -4.71484152      -3.62860453
C       -3.48661228      -5.46967269      -4.83958069
C       -4.29747150      -6.21626599      -5.91179055
H       -5.20730081      -6.63249936      -5.45800103
N       -4.70518311      -5.27857332      -6.95388640
C       -5.24094641      -4.09829011      -6.57051294
N       -6.02697075      -3.26481797      -7.20689623
N       -6.33657216      -2.26918950      -6.30135888
N       -5.76052042      -2.49236961      -5.12536773
N       -5.02282750      -3.59586474      -5.31491492
C       -3.49295613      -7.35360349      -6.51184980
C       -3.69628607      -8.66852403      -6.06099772
C       -2.95137373      -9.72731062      -6.58689739
C       -1.99189619      -9.48783954      -7.56896474
C       -1.77736849      -8.18724420      -8.01920902
C       -2.51447877      -7.12435820      -7.49499818
H       -1.26562894      -0.76373922      -3.61721504
H       -2.67737195      -2.16950207      -5.04189444
H       -3.92760774      -4.41268338      -1.55409935
H       -2.49522640      -2.99934673      -0.14745684
H       -2.55443944      -5.08755575      -5.27868281
H       -3.18888595      -6.15328252      -4.03402675
H       -5.11047813      -5.70240512      -7.78689042
H       -4.43914847      -8.88315419      -5.29475613
H       -3.11975700     -10.74093126      -6.23105768
H       -1.41863737     -10.31673741      -7.97490903
H       -2.33259216      -6.11296153      -7.85456518
C       -0.78660153      -7.93697633      -9.03377633
C        0.04316580      -7.72737699      -9.88347645
Br       1.38482938      -7.38847259     -11.25736969
C       -1.79162761       1.79162761       1.79162761
C       -1.79703167       3.17157332       1.60574496
C       -2.60167558       3.97858532       2.41394370
C       -3.39551045       3.41503748       3.42866461
C       -3.38563234       2.01848199       3.58905586
C       -2.58665107       1.21086025       2.77618682
C       -4.29440548       4.26124056       4.31910166
H       -4.47235795       3.72390697       5.26118709
C       -5.64963840       4.51831161       3.62791566
C       -6.44229237       5.59322545       4.39001022
H       -6.63913378       5.24533431       5.41333311
N       -5.64644187       6.81408349       4.47711747
C       -4.35321451       6.70236563       4.85416932
N       -3.53519800       7.57699326       5.38649369
N       -2.36592100       6.89111018       5.65008936
N       -2.46690882       5.61455997       5.29678897
N       -3.68156557       5.51412934       4.73791226
C       -7.76941089       5.87667822       3.71232030
C       -8.94502783       5.28141469       4.19936530
C      -10.17434064       5.51408742       3.57715367
C      -10.24680900       6.34288233       2.45900915
C       -9.08667331       6.93357549       1.96357290
C       -7.85478133       6.70181585       2.57723798
H       -1.17625646       3.63048932       0.83983742
H       -2.58436992       5.05570781       2.24869073
H       -3.99686330       1.54381299       4.35371419
H       -2.58742209       0.13376324       2.92084465
H       -5.48678934       4.84314791       2.59074075
H       -6.22211887       3.58350794       3.57056841
H       -6.14252930       7.63360234       4.82364203
H       -8.91640376       4.62976013       5.07089490
H      -11.07748130       5.04911597       3.96514868
H      -11.20679121       6.52109800       1.98239459
H       -6.95639722       7.16780250       2.17591916
C       -9.15867353       7.79029254       0.80838812
C       -9.21897370       8.50779308      -0.15907913
Br      -9.31647399       9.66793075      -1.72339184
C        1.79162761      -1.79162761       1.79162761
C        1.75663456      -1.64215656       3.17555883
C        2.56505176      -2.44695428       3.98219856
C        3.43042494      -3.39719472       3.41159287
C        3.43883698      -3.54110030       2.01323291
C        2.62518065      -2.74145850       1.20705899
C        4.31524646      -4.30031681       4.25918442
H        5.17171159      -4.63083047       3.65490995
C        3.52700589      -5.54113293       4.72772685
C        4.31999220      -6.30292793       5.80260791
H        5.27549754      -6.64243536       5.37986830
N        4.61605118      -5.40585159       6.91574005
C        5.10320163      -4.17817463       6.62837320
N        5.80439225      -3.34117421       7.35311849
N        6.10502549      -2.27987843       6.52221662
N        5.60740801      -2.46612599       5.30472376
N        4.92507098      -3.61708894       5.39144726
C        3.55070442      -7.51481651       6.29288849
C        3.85334113      -8.78871502       5.78375167
C        3.14298633      -9.91480676       6.20778865
C        2.11946259      -9.78452566       7.14471224
C        1.80651832      -8.52548042       7.65182296
C        2.50876849      -7.39582246       7.22924420
H        1.10919485      -0.90028284       3.63710551
H        2.51989253      -2.30680690       5.06206903
H        4.08426652      -4.27493402       1.53518994
H        2.65158138      -2.86301520       0.12743340
H        2.55198216      -5.23600495       5.13269090
H        3.31316700      -6.19252814       3.87050009
H        4.99919726      -5.85417492       7.74640149
H        4.64778739      -8.91837698       5.05089442
H        3.38833513     -10.89569702       5.80771380
H        1.57354016     -10.66524580       7.47149784
H        2.24988390      -6.41809603       7.63213894
C        0.74941936      -8.38799985       8.61993498
C       -0.13590102      -8.27285988       9.43072880
Br      -1.56738920      -8.08668827      10.74171382
C       -0.00445707       0.01189536      -1.78238275
H       -0.66409135       0.67374010      -2.43557963
H        0.65740317      -0.63156657      -2.45157240
C       -0.90989263      -0.90692880      -0.91072765
C        0.90977584       0.90977584      -0.90977584
C       -0.00465871       1.77757030       0.00794375
H       -0.66225468       2.44313916      -0.64384735
H        0.64322798       2.43503045       0.67728295
C       -1.78241447       0.00034974      -0.00472694
H       -2.45427497      -0.65498947       0.64260836
H       -2.43311707       0.67328779      -0.65473579
C       -0.91132561       0.90220522       0.91563759
C       -0.01476271      -0.02253852       1.78660255
H       -0.67934791      -0.69751639       2.42135241
H        0.63392994       0.61504881       2.47327442
C        0.01484550      -1.77751727      -0.01636693
H        0.67870853      -2.42144646      -0.68295456
H       -0.62264859      -2.45592969       0.64226336
C        1.78714474       0.01002794       0.00389507
H        2.44202412       0.67113390       0.66197326
H        2.45385902      -0.65136977      -0.64189061
C        0.91606151      -0.90478549       0.90901405
