161
Properties=species:S:1:pos:R:3 pbc="F F F"
C        0.00000000       0.00000000       0.00000000
C        0.88155205       0.88155205      -0.88155205
C        0.51192377       2.19847080      -1.13184548
C        1.31599532       3.00013109      -1.94630876
C        2.50257655       2.50031922      -2.51712619
C        2.85013761       1.16597177      -2.25080760
C        2.04660084       0.36181198      -1.43647939
C        3.32294939       3.40991513      -3.42228069
H        2.62304895       3.76554917      -4.19028787
N        4.37349077       2.70774221      -4.14001571
C        5.65559792       2.73859377      -3.73175102
N        6.68984213       2.08522882      -4.19694794
C        7.72107146       2.55327975      -3.42712264
N        7.38875323       3.45389983      -2.49534124
N        6.05810760       3.53185239      -2.69083738
C        5.16533002       4.36843277      -1.89348605
H        5.71419352       5.31252886      -1.76977913
C        3.89324324       4.65933562      -2.72095788
C        4.90016425       3.82272305      -0.48328764
C        5.30934146       2.53107456      -0.09045774
C        5.07243285       2.06334563       1.20121555
Br       5.65056870       0.33414848       1.69579085
C        4.41870785       2.86356808       2.12831093
C        4.00485667       4.14680285       1.76577448
C        4.25275721       4.63741812       0.47675832
O        3.92417601       5.89979387       0.05730480
C        3.21581043       6.73735600       0.95637578
F        3.03256478       7.92671557       0.32967313
F        1.98192156       6.21779821       1.16560097
H       -0.39995369       2.61009192      -0.70563209
H        0.99833021       4.02410179      -2.13809271
H        3.75340311       0.72760488      -2.67086107
H        2.33972364      -0.66834580      -1.24742224
H        4.09377753       2.01358414      -4.82500180
H        8.74551915       2.22455044      -3.55206688
H        3.12132438       5.16788635      -2.13541114
H        4.17928519       5.36938371      -3.51128535
H        5.82786104       1.87264628      -0.78368800
H        4.22886169       2.50089820       3.13595691
H        3.49118852       4.72982365       2.52341487
H        3.74100959       6.91157307       1.90126241
C       -0.88155205      -0.88155205      -0.88155205
C       -1.93365875      -0.31552757      -1.59305373
C       -2.74426878      -1.12623665      -2.39192974
C       -2.51236176      -2.51150782      -2.49615239
C       -1.44539416      -3.05736948      -1.76415335
C       -0.63330488      -2.24795186      -0.96363546
C       -3.44745703      -3.35079210      -3.35689607
H       -4.45808573      -3.13666436      -2.98413589
N       -3.25717260      -4.78097238      -3.18310371
C       -2.54936494      -5.51525754      -4.06132023
N       -2.19993935      -6.77491648      -3.99716306
C       -1.54496348      -6.97326001      -5.18325035
N       -1.45199354      -5.90405195      -5.98194881
N       -2.07513458      -4.97774194      -5.22792085
C       -2.22961275      -3.57908753      -5.61854856
H       -2.49010065      -3.62095729      -6.68544357
C       -3.43412231      -2.98457145      -4.85484298
C       -0.93611294      -2.75932791      -5.51073408
C        0.22287517      -3.26689186      -4.88685706
C        1.39148928      -2.51017615      -4.81587607
Br       2.92910100      -3.23040013      -3.98762720
C        1.43347079      -1.23183586      -5.35559993
C        0.30073495      -0.70636807      -5.98025192
C       -0.87520215      -1.46253327      -6.07568160
O       -2.01184173      -1.04070062      -6.71412273
C       -2.02988750       0.27545413      -7.24235728
F       -3.23584458       0.44639034      -7.84015298
F       -1.97735320       1.16297795      -6.21974356
H       -2.13685419       0.75092749      -1.52984362
H       -3.56997569      -0.66153042      -2.92901860
H       -1.22522936      -4.12246319      -1.80417651
H        0.18587445      -2.69754549      -0.40712904
H       -3.47702003      -5.17912561      -2.27621784
H       -1.12309830      -7.92863406      -5.47040412
H       -3.52556590      -1.90330769      -4.99574828
H       -4.34240041      -3.41762944      -5.29992439
H        0.23495136      -4.26477443      -4.45437225
H        2.34224338      -0.63697604      -5.29907032
H        0.38168217       0.29972780      -6.37900726
H       -1.24001517       0.46526585      -7.97657094
C       -0.88155205       0.88155205       0.88155205
C       -0.29831895       1.83413538       1.70978573
C       -1.10704706       2.63328882       2.52209929
C       -2.50879594       2.49667806       2.51454796
C       -3.07104764       1.52449966       1.67136969
C       -2.26351469       0.72331008       0.85806744
C       -3.33792519       3.37304325       3.44417677
H       -2.92098456       3.21073520       4.44716622
N       -4.73060664       2.96589020       3.52475185
C       -5.69646921       3.59737440       2.83209911
N       -6.96423121       3.29481158       2.71297611
C       -7.45178989       4.31246653       1.93721742
N       -6.55719430       5.22934057       1.55145943
N       -5.43719102       4.73228679       2.11131955
C       -4.11696027       5.34031596       1.96997262
H       -4.30023437       6.41859382       2.07767332
C       -3.23529688       4.88415380       3.15408605
C       -3.48534615       5.13492635       0.58590243
C       -4.04171126       4.25817211      -0.36900962
C       -3.45983154       4.10069479      -1.62596340
Br      -4.24354025       2.93023707      -2.88485099
C       -2.31030589       4.80369270      -1.96003360
C       -1.74038657       5.67934996      -1.03385150
C       -2.32479907       5.86198215       0.22663579
O       -1.85770268       6.73684589       1.17211651
C       -0.66073603       7.44419746       0.89185716
F       -0.42148149       8.25504613       1.95307960
F        0.36959997       6.56573118       0.83798760
H        0.78149590       1.96006653       1.73719970
H       -0.62575184       3.36305582       3.17171705
H       -4.14806482       1.37329237       1.63051188
H       -2.72586056      -0.02211867       0.21505819
H       -4.93434662       2.06137889       3.93663797
H       -8.49247950       4.38401060       1.64564637
H       -2.19152275       5.19241280       3.04068632
H       -3.60206666       5.40906433       4.04882326
H       -4.94360338       3.69095018      -0.15035824
H       -1.85134188       4.68085235      -2.93839126
H       -0.83817072       6.19917666      -1.33975008
H       -0.71298842       8.05426517      -0.01593333
C        0.88155205      -0.88155205       0.88155205
C        0.88492466      -0.69748383       2.25983155
C        1.69948482      -1.49973307       3.06321727
C        2.51710739      -2.50020494       2.50270963
C        2.49693200      -2.66211752       1.10786746
C        1.68293490      -1.85997043       0.30198688
C        3.40801841      -3.32321733       3.42390947
H        3.99696230      -2.59035803       3.99156566
N        4.37528841      -4.13792235       2.70803793
C        4.17816036      -5.45223538       2.49554697
N        4.88926931      -6.29372514       1.78902444
C        4.23809974      -7.48306283       1.98031127
N        3.14971578      -7.43172425       2.75655428
N        3.11608273      -6.11684192       3.04787272
C        2.07781218      -5.48891797       3.86051869
H        1.91481516      -6.19417665       4.68750971
C        2.64181675      -4.17825107       4.45346891
C        0.73235038      -5.33673038       3.13709418
C        0.59254798      -5.58319032       1.75513545
C       -0.64330355      -5.45479171       1.12307478
Br      -0.79497002      -5.81007532      -0.72617897
C       -1.76491962      -5.07255811       1.84632650
C       -1.65431253      -4.82435994       3.21583762
C       -0.42245024      -4.96754711       3.86832015
O       -0.23963017      -4.79147096       5.21482429
C       -1.34779788      -4.35797183       5.98661671
F       -0.92898958      -4.28357926       7.27501755
F       -1.67891379      -3.09746244       5.61557016
H        0.26496143       0.06866531       2.71947420
H        1.69447475      -1.32742847       4.13862149
H        3.11318316      -3.41640081       0.62228509
H        1.68751837      -2.00691895      -0.77563724
H        5.09558236      -3.65839443       2.17838668
H        4.57029003      -8.41414473       1.53770172
H        1.87525800      -3.58646247       4.96290141
H        3.36215372      -4.46283954       5.23496098
H        1.44429757      -5.88837236       1.15152538
H       -2.73013254      -4.96783110       1.35610442
H       -2.55781882      -4.52068827       3.73472785
H       -2.21084095      -5.02970110       5.93246011
