186
Properties=species:S:1:pos:R:3 pbc="F F F"
C        1.79183706       1.79183706      -1.79183706
C        1.27588488       2.97231091      -2.32144849
C        2.08874676       3.78721960      -3.11924079
C        1.54022303       5.04237356      -3.67427614
N        0.26651998       5.27676389      -3.66255675
C       -0.20794883       6.48370920      -4.19692222
C       -1.21061506       7.15528243      -3.49437648
C       -1.76340502       8.33974046      -3.98941466
C       -1.30941254       8.88303966      -5.19408928
C       -0.33025906       8.19846475      -5.91558800
C        0.21198936       7.00414454      -5.42563772
N       -1.86388839      10.05416374      -5.73514709
C       -1.80278378      11.12692378      -5.00884962
C       -2.38124374      12.40245345      -5.48108675
C       -2.33864092      13.49345334      -4.60666062
C       -2.87732693      14.71440423      -5.00866797
C       -3.45269399      14.86101149      -6.26997160
C       -3.49368717      13.76913719      -7.14283097
I       -4.36960305      14.05408504      -9.02358077
C       -2.96223311      12.53436635      -6.75286170
O       -3.01949727      11.47683749      -7.62348274
C        3.41044725       3.41476044      -3.38699577
O        4.18312296       4.22254919      -4.17890296
C        3.91285257       2.21988210      -2.85634726
I        5.87283174       1.60159737      -3.24140947
C        3.10601503       1.40745738      -2.05557765
H        0.24894703       3.26573446      -2.11312692
H        2.26440581       5.76435172      -4.09287959
H       -1.57613100       6.73802381      -2.55958413
H       -2.56183006       8.82493889      -3.43592256
H        0.00306795       8.58773537      -6.87384060
H        0.95041597       6.47569149      -6.02141415
H       -1.32219644      11.13099459      -4.01232431
H       -1.89468241      13.39510294      -3.61930277
H       -3.86711459      15.82102020      -6.56830889
H       -2.63820336      10.68845298      -7.17289033
H        5.05281774       3.79443449      -4.28717691
H        3.49110234       0.48015609      -1.63860047
C       -2.83989164      15.83759585      -4.10831294
C       -2.80853958      16.77826884      -3.35426561
Br      -2.75784596      18.29925750      -2.13503484
C       -1.79183706      -1.79183706      -1.79183706
C       -1.36759233      -3.07571347      -2.12633848
C       -2.18231220      -3.88878713      -2.92410783
C       -1.73216129      -5.25290808      -3.27180337
N       -0.50440934      -5.61912213      -3.08230915
C       -0.12377633      -6.92525764      -3.42364861
C        0.71008657      -7.61106627      -2.53806415
C        1.16651260      -8.89866757      -2.83359514
C        0.78212189      -9.53088946      -4.01894885
C       -0.02494603      -8.83703844      -4.92180923
C       -0.46923978      -7.54144172      -4.63109013
N        1.24673585     -10.81103316      -4.36112515
C        0.97998134     -11.77614162      -3.53682935
C        1.44837493     -13.15364014      -3.79703124
C        1.18184372     -14.12095482      -2.82236194
C        1.61001621     -15.43190116      -3.02386032
C        2.29525757     -15.78952318      -4.18402348
C        2.56013738     -14.82098524      -5.15743313
I        3.59169373     -15.42164096      -6.87811552
C        2.14204921     -13.49861711      -4.96842702
O        2.41862726     -12.56545011      -5.93400011
C       -3.41347403      -3.41189007      -3.38683936
O       -4.18830576      -4.22152988      -4.17473947
C       -3.82273051      -2.11512155      -3.05122988
I       -5.64181653      -1.34138179      -3.73264025
C       -3.01457325      -1.30349768      -2.25097913
H       -0.41151498      -3.45019731      -1.76609612
H       -2.48877482      -5.93824433      -3.69461797
H        1.02090235      -7.12616562      -1.61621367
H        1.83710484      -9.39656021      -2.13957602
H       -0.29812284      -9.30057454      -5.86594654
H       -1.07089920      -7.01235092      -5.36427149
H        0.39853466     -11.60915274      -2.61050439
H        0.64982114     -13.85789634      -1.91164810
H        2.62100306     -16.81718545      -4.32603211
H        2.08869155     -11.69245263      -5.61937887
H       -4.98372675      -3.71892516      -4.43177722
H       -3.32798587      -0.29701866      -1.98485438
C        1.34194793     -16.42843013      -2.01953496
C        1.11744075     -17.26302314      -1.17841248
Br       0.75443162     -18.61248944       0.18161144
C       -1.79183706       1.79183706       1.79183706
C       -2.21693416       1.32084419       3.03186593
C       -3.01466165       2.13472868       3.84581682
C       -3.45860548       1.63448741       5.16377985
N       -3.35272695       0.38103683       5.47207684
C       -3.78360606      -0.04724126       6.73631778
C       -2.98065890      -0.96214543       7.42053038
C       -3.36875369      -1.46753660       8.66453302
C       -4.56531582      -1.05242571       9.25482630
C       -5.38643334      -0.16288962       8.56024997
C       -5.00332752       0.33107609       7.30736801
N       -4.99994190      -1.56306590      10.48854645
C       -4.21661240      -1.39148861      11.50786584
C       -4.57497309      -1.91535954      12.84268291
C       -3.64182275      -1.75228122      13.87193152
C       -3.93596117      -2.23580423      15.14558834
C       -5.14756258      -2.87455874      15.40528525
C       -6.07930539      -3.03599568      14.37497129
I       -7.88087637      -4.00217953      14.82936592
C       -5.79752337      -2.56126262      13.08873418
O       -6.72397385      -2.73661134      12.09346046
C       -3.38682802       3.41210976       3.41326568
O       -4.17658099       4.18585894       4.22213518
C       -2.96069774       3.86875993       2.15962426
I       -3.50454991       5.75956981       1.45171885
C       -2.16023666       3.06121032       1.34760308
H       -1.92724892       0.32861242       3.37194707
H       -3.87848636       2.37665072       5.86650003
H       -2.05107092      -1.29716801       6.96757404
H       -2.73822911      -2.19955487       9.16035715
H       -6.33902365       0.13690914       8.98871114
H       -5.67475977       0.99808666       6.77467517
H       -3.25388544      -0.85335838      11.42059541
H       -2.69199260      -1.25764345      13.68537415
H       -5.36172745      -3.24458742      16.40507447
H       -6.34586005      -2.37973636      11.25701625
H       -4.36466675       5.01887806       3.75088433
H       -1.82408829       3.41111277       0.37465784
C       -2.97474458      -2.07430694      16.20557952
C       -2.16972570      -1.93905297      17.09332213
Br      -0.86807824      -1.72035872      18.52872686
C        1.79183706      -1.79183706       1.79183706
C        3.10038888      -2.06731356       1.40194185
C        3.91286747      -2.86515925       2.21718043
C        5.30291367      -3.15017144       1.80378762
N        5.70378513      -2.90520079       0.59685470
C        7.03332641      -3.18828592       0.25107025
C        7.71549000      -2.25106046      -0.52750661
C        9.02748449      -2.48635305      -0.94808744
C        9.68762080      -3.66231392      -0.58221832
C        8.99894461      -4.61612442       0.16872466
C        7.67954654      -4.38548265       0.57674244
N       10.99408818      -3.94416119      -1.01282692
C       11.91992945      -3.09741466      -0.68435448
C       13.32087610      -3.29394049      -1.11252014
C       14.24363204      -2.29691796      -0.77907694
C       15.57467026      -2.43849165      -1.16741664
C       15.99604047      -3.56095987      -1.87871125
C       15.07196219      -4.55682406      -2.21050526
I       15.76759981      -6.21867237      -3.27820943
C       13.73029899      -4.42776105      -1.83306511
O       12.84167119      -5.41418262      -2.17503085
C        3.41095384      -3.38692521       3.41432442
O        4.22101218      -4.17362538       4.18993755
C        2.08999629      -3.11025268       3.78883297
I        1.27929582      -3.88124250       5.55530026
C        1.27865507      -2.31011038       2.98028460
H        3.49426300      -1.66108727       0.47245813
H        5.97657827      -3.57581156       2.56924728
H        7.20927617      -1.33586589      -0.82366512
H        9.52315004      -1.75260723      -1.57672589
H        9.48588510      -5.55298022       0.42577861
H        7.15644492      -5.15697717       1.13409951
H       11.70073134      -2.19836238      -0.07797125
H       13.93071097      -1.41498576      -0.22597343
H       17.03855432      -3.65636095      -2.17270077
H       11.94741419      -5.14126154      -1.86553578
H        3.70100172      -4.47547119       4.95795623
H        0.25334699      -2.08958700       3.26692491
C       16.52550858      -1.41090884      -0.83040026
C       17.32183567      -0.55030823      -0.54814903
Br      18.60942923       0.84121017      -0.09177268
C       -0.00445707       0.01189536      -1.78238275
H       -0.66409135       0.67374010      -2.43557963
H        0.65740317      -0.63156657      -2.45157240
C       -0.90989263      -0.90692880      -0.91072765
C        0.90977584       0.90977584      -0.90977584
C       -0.00465871       1.77757030       0.00794375
H       -0.66225468       2.44313916      -0.64384735
H        0.64322798       2.43503045       0.67728295
C       -1.78241447       0.00034974      -0.00472694
H       -2.45427497      -0.65498947       0.64260836
H       -2.43311707       0.67328779      -0.65473579
C       -0.91132561       0.90220522       0.91563759
C       -0.01476271      -0.02253852       1.78660255
H       -0.67934791      -0.69751639       2.42135241
H        0.63392994       0.61504881       2.47327442
C        0.01484550      -1.77751727      -0.01636693
H        0.67870853      -2.42144646      -0.68295456
H       -0.62264859      -2.45592969       0.64226336
C        1.78714474       0.01002794       0.00389507
H        2.44202412       0.67113390       0.66197326
H        2.45385902      -0.65136977      -0.64189061
C        0.91606151      -0.90478549       0.90901405
