165
Properties=species:S:1:pos:R:3 pbc="F F F"
C        0.00000000       0.00000000       0.00000000
C        0.88193304       0.88193304      -0.88193304
C        0.36598086       2.06240689      -1.41154446
C        1.17884274       2.87731557      -2.20933676
C        0.63031901       4.13246954      -2.76437211
N       -0.64338404       4.36685986      -2.75265272
C       -1.11785286       5.57380517      -3.28701819
C       -2.12051908       6.24537840      -2.58447246
C       -2.67330904       7.42983644      -3.07951063
C       -2.21931656       7.97313564      -4.28418526
C       -1.24016308       7.28856073      -5.00568397
C       -0.69791466       6.09424051      -4.51573370
N       -2.77379241       9.14425972      -4.82524307
C       -2.71268780      10.21701976      -4.09894560
C       -3.29114776      11.49254942      -4.57118272
C       -3.24854494      12.58354932      -3.69675660
C       -3.78723095      13.80450021      -4.09876394
C       -4.36259801      13.95110746      -5.36006757
C       -4.40359119      12.85923317      -6.23292695
I       -5.27950708      13.14418102      -8.11367674
C       -3.87213714      11.62446232      -5.84295767
O       -3.92940129      10.56693347      -6.71357871
C        2.50054323       2.50485641      -2.47709175
O        3.27321893       3.31264516      -3.26899894
C        3.00294855       1.30997808      -1.94644323
I        4.96292772       0.69169334      -2.33150544
C        2.19611100       0.49755335      -1.14567362
H       -0.66095699       2.35583044      -1.20322289
H        1.35450178       4.85444770      -3.18297556
H       -2.48603502       5.82811979      -1.64968010
H       -3.47173408       7.91503486      -2.52601853
H       -0.90683607       7.67783135      -5.96393658
H        0.04051194       5.56578746      -5.11151012
H       -2.23210046      10.22109057      -3.10242029
H       -2.80458644      12.48519892      -2.70939875
H       -4.77701862      14.91111618      -5.65840486
H       -3.54810739       9.77854896      -6.26298631
H        4.14291372       2.88453046      -3.37727288
H        2.58119831      -0.42974793      -0.72869645
C       -3.74979566      14.92769183      -3.19840892
C       -3.71844360      15.86836481      -2.44436158
Br      -3.66774998      17.38935347      -1.22513082
C       -0.88193304      -0.88193304      -0.88193304
C       -2.12784217      -1.29569459      -0.41639545
C       -2.94168568      -2.09342235      -1.23038705
C       -4.26584390      -2.52532090      -0.73599586
N       -4.58169902      -2.40908131       0.51465178
C       -5.85157558      -2.82874865       0.93735373
C       -6.53646207      -2.01523916       1.84236945
C       -7.78632598      -2.39174518       2.34203313
C       -8.38180503      -3.58711646       1.93091716
C       -7.68684350      -4.41869535       1.05145724
C       -6.42820925      -4.04716077       0.56331047
N       -9.62173080      -4.01018474       2.43620516
C      -10.63466676      -3.22130031       2.25268952
C      -11.97526551      -3.56735117       2.77003230
C      -12.99719068      -2.62853044       2.59396014
C      -14.27593866      -2.91103378       3.07093924
C      -14.54789346      -4.11662239       3.71593883
C      -13.52488280      -5.05405359       3.89036747
I      -13.99760936      -6.84612441       4.86538309
C      -12.23369523      -4.78393075       3.42234312
O      -11.24577994      -5.71574605       3.61041511
C       -2.50319358      -2.47691747      -2.50238033
O       -3.31216790      -3.26643788      -3.27625726
C       -1.24376033      -2.06211734      -2.95349220
I       -0.52701718      -2.62318541      -4.83592390
C       -0.43178645      -1.26168546      -2.14586607
H       -2.47253391      -0.99718255       0.57162012
H       -4.96642395      -2.94547633      -1.48002476
H       -6.07955948      -1.08645586       2.17425047
H       -8.28277076      -1.75310989       3.06656133
H       -8.11963742      -5.37040758       0.75511315
H       -5.89559844      -4.72651330      -0.09569779
H      -10.53744921      -2.26276813       1.70880694
H      -12.80106339      -1.68326095       2.09431311
H      -15.55150507      -4.32171804       4.08072069
H      -10.40450342      -5.34554285       3.25661840
H       -2.83668811      -3.46316277      -4.10486618
H        0.54566017      -0.93430068      -2.49150632
C      -15.32842896      -1.94393457       2.89605844
C      -16.20988958      -1.13398898       2.74959578
Br     -17.63513686       0.17562453       2.51277803
C       -0.88193304       0.88193304       0.88193304
C       -0.64658280       0.93974534       2.25360407
C       -1.44698589       1.75848563       3.06002356
C       -1.19045133       1.82257556       4.51413377
N       -0.42674837       0.95335106       5.09602911
C       -0.20886693       1.05629507       6.47780851
C        1.09029482       0.85227166       6.94735494
C        1.37367183       0.89432368       8.31538618
C        0.35979132       1.15761250       9.24018316
C       -0.94579670       1.33024996       8.77803495
C       -1.23066396       1.27305581       7.40833978
N        0.60377230       1.17660974      10.62287293
C        1.48095435       2.02793082      11.05630109
C        1.82482596       2.10573525      12.49167509
C        2.83375558       2.99933713      12.86617943
C        3.19409133       3.10146951      14.20865502
C        2.55948098       2.32833858      15.17971943
C        1.55064195       1.43602870      14.80318217
I        0.63503003       0.30453541      16.30884530
C        1.18034571       1.31702731      13.45860126
O        0.19285529       0.43101654      13.11294964
C       -2.48079651       2.51029354       2.49140135
O       -3.25739178       3.29561044       3.30186082
C       -2.71267513       2.43450382       1.11219092
I       -4.25727979       3.51796935       0.21087736
C       -1.91236681       1.62275608       0.30421509
H        0.15816926       0.35784453       2.69842107
H       -1.67587657       2.64262171       5.07342677
H        1.88547482       0.63990883       6.23733086
H        2.38779344       0.70349996       8.65361279
H       -1.75106144       1.49499484       9.48887557
H       -2.25962059       1.38034020       7.07784874
H        2.00653622       2.72316057      10.37478605
H        3.33918628       3.60826543      12.12093207
H        2.85183834       2.42144089      16.22289987
H        0.09199707       0.45194372      12.13348122
H       -3.94255854       3.71414651       2.74801200
H       -2.08570676       1.56180716      -0.76736709
C        4.23632138       4.01644464      14.59618183
C        5.10918905       4.78273631      14.92073554
Br       6.52054225       6.02176513      15.44551142
C        0.88193304      -0.88193304       0.88193304
C        0.55998383      -2.22619487       1.05375351
C        1.37608331      -3.03758237       1.85182939
C        1.03531889      -4.46503321       2.02680857
N       -0.12706969      -4.92074163       1.68245660
C       -0.40419886      -6.28376868       1.86340069
C       -1.08081642      -6.95035492       0.83979328
C       -1.43072422      -8.29732868       0.96943357
C       -1.09445687      -9.00765612       2.12480509
C       -0.44676862      -8.33727781       3.16357243
C       -0.11012215      -6.98397114       3.03821056
N       -1.45747670     -10.35266923       2.30051785
C       -1.02119082     -11.20181962       1.42264876
C       -1.37071273     -12.63540526       1.50789186
C       -0.92072185     -13.47166865       0.48081418
C       -1.23172381     -14.82975874       0.51799827
C       -1.98047882     -15.36297786       1.56607798
C       -2.42884153     -14.52522556       2.59218489
I       -3.54740526     -15.38705717       4.13869877
C       -2.13011573     -13.15799208       2.56740651
O       -2.58580424     -12.35556374       3.58135139
C        2.50583846      -2.49932731       2.47732561
O        3.28297290      -3.30995743       3.26193271
C        2.81174479      -1.14354719       2.30407788
I        4.47427130      -0.27955676       3.23229844
C        2.00251899      -0.33274892       1.50407007
H       -0.31684673      -2.64819849       0.56674457
H        1.81520013      -5.11752370       2.45920121
H       -1.35341659      -6.40573119      -0.06054974
H       -1.98189893      -8.78208138       0.16913686
H       -0.21563547      -8.86640157       4.08416576
H        0.36605561      -6.47852153       3.87323239
H       -0.37744970     -10.89040388       0.57845621
H       -0.33701390     -13.07114165      -0.34411652
H       -2.21301129     -16.42509332       1.58042040
H       -2.31786467     -11.42897780       3.38231475
H        3.99717667      -2.76529904       3.64224136
H        2.23627040       0.71971259       1.36358902
C       -0.77457496     -15.69184997      -0.54096993
C       -0.39171280     -16.41385138      -1.42785579
Br       0.22734293     -17.58126659      -2.86187522
