85
Properties=species:S:1:pos:R:3 pbc="F F F"
C        0.00000000       0.00000000       0.00000000
C        0.91605045       0.91605045      -0.91605045
C        1.73134022       1.84947024      -0.04085151
C        2.62174839       2.74072633      -0.88230317
O        2.63786592       2.67162937      -2.10955151
C        3.50538705       3.73181421      -0.19387115
C        3.53598529       3.86948912       1.20035389
C        4.38108845       4.81288128       1.79580254
C        5.19517375       5.61808693       1.00054157
C        5.17435522       5.49120628      -0.38563912
C        4.33054773       4.54948005      -0.98099778
H        0.24499700       1.45846111      -1.58705786
H        1.54613688       0.24215174      -1.50224292
H        2.36243432       1.26389725       0.63840193
H        1.06002399       2.48261006       0.55154995
H        2.91525598       3.25902428       1.84982607
H        4.39648527       4.91125724       2.87866560
H        5.80616756       6.11540438      -1.01198620
H        4.32096387       4.45738190      -2.06638568
C        6.06305459       6.58733230       1.61775000
C        6.78990480       7.39907530       2.13466207
Br       7.96516011       8.71159507       2.97046516
C       -0.91605045      -0.91605045      -0.91605045
C       -1.14488689      -0.22799786      -2.24877721
C       -2.01607304      -1.07558358      -3.15312128
O       -2.45184223      -2.16891456      -2.79829002
C       -2.35224635      -0.56185624      -4.51696982
C       -1.89508809       0.67671814      -4.98675056
C       -2.23837786       1.11203035      -6.27181968
C       -3.03706408       0.31185529      -7.08751031
C       -3.49761771      -0.92071207      -6.63287084
C       -3.15538077      -1.35601178      -5.34963300
H       -1.84774462      -1.07559623      -0.36717512
H       -0.39390949      -1.86993656      -1.02668549
H       -0.18337667      -0.05696917      -2.74758379
H       -1.64048571       0.73678429      -2.08738267
H       -1.27156931       1.32530015      -4.37818503
H       -1.87819611       2.07504045      -6.62592126
H       -4.12057826      -1.54988389      -7.26309598
H       -3.52043928      -2.32184550      -5.00244667
C       -3.38764894       0.76398655      -8.40897449
C       -3.68126376       1.14264648      -9.51570074
Br      -4.15601410       1.75490757     -11.30518349
C       -0.91605045       0.91605045       0.91605045
C       -1.79615770       0.03887212       1.78663216
C       -2.68587233       0.88034496       2.67856061
O       -2.65497108       2.10902916       2.65504658
C       -3.62738450       0.19014560       3.61354232
C       -3.72011787      -1.20597692       3.69097956
C       -4.61808197      -1.80303983       4.58312506
C       -5.42270375      -1.00748987       5.39750522
C       -5.34020276       0.38057447       5.33042339
C       -4.44386062       0.97753743       4.43962750
H       -1.49952908       1.54874703       0.24223985
H       -0.24202356       1.54206785       1.50644012
H       -1.17051781      -0.60200326       2.41941507
H       -2.43052733      -0.59340230       1.15395907
H       -3.10873864      -1.85573463       3.07145018
H       -4.68181637      -2.88737902       4.63463956
H       -5.96423618       1.00715911       5.96216285
H       -4.38630010       2.06439045       4.39404090
C       -6.34511653      -1.62636360       6.31388395
C       -7.11763723      -2.14467034       7.08135113
Br      -8.36673787      -2.98272852       8.32228066
C        0.91605045      -0.91605045       0.91605045
C        1.84287746      -1.73836619       0.04041832
C        2.73634736      -2.62641509       0.88201545
O        2.67251728      -2.63691967       2.10960985
C        3.72355268      -3.51419142       0.19332832
C        3.84865127      -3.55819230      -1.20172307
C        4.78864556      -4.40691662      -1.79739498
C        5.60330569      -5.21092620      -1.00151279
C        5.48914771      -5.17654906       0.38550385
C        4.55055841      -4.32939851       0.98106863
H        0.24199640      -1.54139098       1.50712858
H        1.46349804      -0.24454056       1.58249294
H        2.47481515      -1.07195160      -0.55883712
H        1.25208039      -2.37140709      -0.63240338
H        3.23035868      -2.94580509      -1.85170958
H        4.87691272      -4.43308644      -2.88092225
H        6.12079737      -5.80042023       1.01234055
H        4.46833656      -4.30928943       2.06710547
C        6.56901380      -6.08257673      -1.61895364
C        7.37779434      -6.81258404      -2.13606036
Br       8.68552407      -7.99294413      -2.97217819
