77
Properties=species:S:1:pos:R:3 pbc="F F F"
C        0.00000000       0.00000000       0.00000000
C        0.91605045       0.91605045      -0.91605045
C        1.73134022       1.84947024      -0.04085151
C        2.62174839       2.74072633      -0.88230317
O        2.63786592       2.67162937      -2.10955151
C        3.50538705       3.73181421      -0.19387115
C        3.53598529       3.86948912       1.20035389
C        4.38108845       4.81288128       1.79580254
C        5.19517375       5.61808693       1.00054157
Br       6.33421349       6.89016132       1.81058933
C        5.17435522       5.49120628      -0.38563912
C        4.33054773       4.54948005      -0.98099778
H        0.24499700       1.45846111      -1.58705786
H        1.54613688       0.24215174      -1.50224292
H        2.36243432       1.26389725       0.63840193
H        1.06002399       2.48261006       0.55154995
H        2.91525598       3.25902428       1.84982607
H        4.39648527       4.91125724       2.87866560
H        5.80616756       6.11540438      -1.01198620
H        4.32096387       4.45738190      -2.06638568
C       -0.91605045      -0.91605045      -0.91605045
C       -1.12167079      -0.24088096      -2.25911022
C       -1.99220514      -1.08885313      -3.16371963
O       -2.44461188      -2.17295719      -2.80147774
C       -2.30680783      -0.58711892      -4.53714565
C       -1.83002199       0.64063597      -5.01573449
C       -2.15354709       1.06495750      -6.30957760
C       -2.95205619       0.26458605      -7.12524897
Br      -3.38543480       0.84310997      -8.87146065
C       -3.43199447      -0.95729886      -6.66190730
C       -3.10950098      -1.38161703      -5.36990754
H       -1.85573894      -1.05858158      -0.37619545
H       -0.40374183      -1.87705695      -1.00973276
H       -0.15260965      -0.08663035      -2.74868962
H       -1.60789493       0.73130363      -2.11449280
H       -1.20604255       1.28904180      -4.40745343
H       -1.77823276       2.01963021      -6.67047436
H       -4.05494380      -1.58655385      -7.29206050
H       -3.48964503      -2.33913719      -5.01594924
C       -0.91605045       0.91605045       0.91605045
C       -1.75027116       0.03980281       1.83158799
C       -2.63866278       0.88136619       2.72474893
O       -2.64063772       2.10939797       2.66901112
C       -3.53750822       0.19209178       3.70147241
C       -3.59154916      -1.20343189       3.81700324
C       -4.45041642      -1.79964301       4.74739379
C       -5.25455045      -1.00383078       5.56199944
Br      -6.41226125      -1.81491284       6.81643706
C       -5.21025859       0.38365022       5.45729181
C       -4.35297508       0.97975540       4.52829508
H       -1.53298117       1.51570909       0.24182571
H       -0.24380841       1.57438630       1.47233683
H       -1.09204226      -0.56802769       2.46391506
H       -2.38379991      -0.62488143       1.23216562
H       -2.97937094      -1.85337776       3.19846101
H       -4.48432552      -2.88353157       4.82828297
H       -5.83416188       1.01043543       6.08896083
H       -4.32515007       2.06615378       4.45342760
C        0.91605045      -0.91605045       0.91605045
C        1.79599160      -1.78679914       0.03887123
C        2.68817692      -2.67624367       0.88035730
O        2.65795422      -2.65204746       2.10904513
C        3.63184919      -3.60905371       0.19016951
C        3.71721642      -3.69389655      -1.20599246
C        4.61732448      -4.58388660      -1.80304389
C        5.43175268      -5.38840784      -1.00744141
Br       6.64521663      -6.58822833      -1.81965949
C        5.35683829      -5.31369878       0.38066355
C        4.45808900      -4.42532293       0.97761362
H        0.24201358      -1.50648885       1.54201354
H        1.49948012      -0.24225039       1.54880103
H        2.42881978      -1.15437541      -0.59526556
H        1.17010070      -2.42113477      -0.60015138
H        3.09789167      -3.08235523      -1.85579271
H        4.67495389      -4.64153879      -2.88741577
H        5.98856394      -5.93770483       1.00728937
H        4.40640701      -4.37382634       2.06449811
