98
Properties=species:S:1:pos:R:3 pbc="F F F"
C        1.82427248       1.82427248      -1.82427248
C        3.04913057       1.07454583      -2.18686467
C        4.14746113       0.76825508      -1.40549434
N        4.99979408       0.06306639      -2.21549679
C        6.24151733      -0.49223507      -1.92426444
C        6.90888708      -1.14662895      -2.89127872
C        6.30326849      -1.25019766      -4.21556468
C        5.09916463      -0.70754469      -4.48555490
C        4.39258398      -0.01532689      -3.46295615
N        3.22614477       0.59295401      -3.46785273
H        2.05331106       2.72532692      -1.24964036
H        1.22975348       2.09028731      -2.70187816
H        4.37815192       0.97574230      -0.37039912
H        6.61552274      -0.36856305      -0.91628183
H        6.84485687      -1.78058908      -4.99346452
H        4.64607352      -0.78395988      -5.46745623
C        8.19829678      -1.75016387      -2.67501912
C        9.27817741      -2.25562436      -2.49390171
Br      11.02425306      -3.07291123      -2.20105016
C       -1.82427248      -1.82427248      -1.82427248
C       -2.74905208      -0.96378861      -2.59770037
C       -3.87189955      -0.28234565      -2.16696534
N       -4.36767297       0.36093641      -3.27162069
C       -5.47691403       1.19214680      -3.38877947
C       -5.77863336       1.71547013      -4.59037361
C       -4.92782990       1.39052188      -5.73132749
C       -3.85550549       0.58341790      -5.60508726
C       -3.53568114       0.02965452      -4.33418662
N       -2.56446237      -0.77093202      -3.95155712
H       -2.36161813      -2.50625486      -1.16040536
H       -1.15449582      -2.39513895      -2.47228418
H       -4.33503589      -0.19466449      -1.19459297
H       -6.05204621       1.38036611      -2.49156142
H       -5.17412806       1.81618182      -6.69978607
H       -3.22089520       0.34136221      -6.45003689
C       -6.90798442       2.58410541      -4.79927303
C       -7.85381592       3.31158745      -4.97422629
Br      -9.38314547       4.48786438      -5.25711091
C       -1.82427248       1.82427248       1.82427248
C       -1.08783588       3.06550644       2.15719874
C       -0.03731317       3.24680238       3.03709500
N        0.27778355       4.57980246       2.97633834
C        1.26631555       5.28770372       3.65215853
C        1.38994345       6.60907759       3.43440271
C        0.47874531       7.25384376       2.49353706
C       -0.47550840       6.55690988       1.84475657
C       -0.60667509       5.15900811       2.07453004
N       -1.43890682       4.26851870       1.57952598
H       -2.06782141       1.24313986       2.71731708
H       -2.73701182       2.02664044       1.25826668
H        0.50237616       2.55683029       3.66983921
H        1.89842033       4.73044911       4.33121274
H        0.58266547       8.32092542       2.31947236
H       -1.15272984       7.03244170       1.14439834
C        2.38489343       7.41618987       4.09185559
C        3.21816404       8.09214641       4.64247238
Br       4.56549213       9.18511096       5.53277316
C        1.82427248      -1.82427248       1.82427248
C        0.98099555      -2.47789971       2.85164581
C        0.40544352      -1.93208387       3.98368316
N       -0.27143507      -2.95728220       4.59251012
C       -1.03165099      -2.94776959       5.75742810
C       -1.60830220      -4.08984676       6.17199229
C       -1.41424072      -5.30159900       5.38127723
C       -0.67496347      -5.29810998       4.25402834
C       -0.06484480      -4.09022079       3.81483725
N        0.69096477      -3.82461194       2.77137480
H        2.58153645      -1.17530668       2.27143522
H        2.30656032      -2.55034621       1.16501241
H        0.41082592      -0.92869482       4.38477260
H       -1.12356889      -2.00535330       6.28145711
H       -1.88265475      -6.22162984       5.71875723
H       -0.53014990      -6.19587212       3.66384766
C       -2.41022278      -4.16788632       7.36548850
C       -3.08183127      -4.23324445       8.36504158
Br      -4.16776539      -4.33892302       9.98123436
C       -0.00445707       0.01189536      -1.78238275
H       -0.66409135       0.67374010      -2.43557963
H        0.65740317      -0.63156657      -2.45157240
C       -0.90989263      -0.90692880      -0.91072765
C        0.90977584       0.90977584      -0.90977584
C       -0.00465871       1.77757030       0.00794375
H       -0.66225468       2.44313916      -0.64384735
H        0.64322798       2.43503045       0.67728295
C       -1.78241447       0.00034974      -0.00472694
H       -2.45427497      -0.65498947       0.64260836
H       -2.43311707       0.67328779      -0.65473579
C       -0.91132561       0.90220522       0.91563759
C       -0.01476271      -0.02253852       1.78660255
H       -0.67934791      -0.69751639       2.42135241
H        0.63392994       0.61504881       2.47327442
C        0.01484550      -1.77751727      -0.01636693
H        0.67870853      -2.42144646      -0.68295456
H       -0.62264859      -2.45592969       0.64226336
C        1.78714474       0.01002794       0.00389507
H        2.44202412       0.67113390       0.66197326
H        2.45385902      -0.65136977      -0.64189061
C        0.91606151      -0.90478549       0.90901405
