90
Properties=species:S:1:pos:R:3 pbc="F F F"
N        1.43179832       3.61141471      -5.00967303
C        2.01658684       3.05253513      -3.86826189
C        1.25890145       2.25935930      -3.00665183
C        1.79861331       1.79861331      -1.79861331
C        3.11168396       2.12177081      -1.41478165
N        3.60459872       1.76432677      -0.14164199
C        3.81980543       3.01222937      -2.23998814
C        3.27875368       3.47225951      -3.44795150
H        2.09708473       3.91113366      -5.71620794
H        0.67765228       3.05866680      -5.40597405
H        0.23634553       2.00297503      -3.27168397
H        4.61989284       1.77266475      -0.08725374
H        3.18780096       0.91270157       0.22566985
H        3.84489128       4.17008935      -4.06018224
C        5.13604405       3.47064849      -1.87809338
C        6.23839389       3.85457451      -1.57500652
Br       8.02080034       4.47535040      -1.08494070
N       -5.39589778      -2.66739218      -1.98959611
C       -4.01846427      -2.68540581      -2.23351379
C       -3.16064620      -1.88296148      -1.48130490
C       -1.79861331      -1.79861331      -1.79861331
C       -1.25525214      -2.51169780      -2.88128648
N        0.08685365      -2.32282294      -3.27459820
C       -2.15299428      -3.22486249      -3.69416618
C       -3.51500952      -3.30835421      -3.37560095
H       -5.89608109      -3.47148211      -2.35686312
H       -5.64690554      -2.46977458      -1.02561302
H       -3.55484126      -1.31087318      -0.64529010
H        0.44842525      -3.08198799      -3.84624860
H        0.69970550      -2.07135423      -2.50318394
H       -4.18812128      -3.85737677      -4.02966482
C       -1.69869940      -3.90912884      -4.87695768
C       -1.31822745      -4.48220190      -5.86754556
Br      -0.70303647      -5.40881258      -7.46924239
N       -1.93606161       2.73564384       5.38118060
C       -2.29676573       2.60476527       4.03585287
C       -1.51863088       1.83537422       3.17090749
C       -1.79861331       1.79861331       1.79861331
C       -2.86338245       2.53452382       1.25033014
N       -3.06035606       2.59596240      -0.14575098
C       -3.56485244       3.38972587       2.11744463
C       -3.28373891       3.42547005       3.48975572
H       -2.68864922       3.04848468       5.98729242
H       -1.44822863       1.93097768       5.76308682
H       -0.68134652       1.26490448       3.56475353
H       -3.99899773       2.88724658      -0.40643297
H       -2.74751271       1.75985702      -0.63253706
H       -3.83476231       4.10585995       4.13454062
C       -4.61026875       4.24913324       1.62538393
C       -5.48580491       4.96888690       1.21328310
Br      -6.90147283       6.13266771       0.54695091
N        5.32719007      -2.93035623       1.79533976
C        3.97543720      -2.82264936       2.13929732
C        3.12187127      -2.01221926       1.39082206
C        1.79861331      -1.79861331       1.79861331
C        1.29139343      -2.38643249       2.97041050
N        0.00149284      -2.06493984       3.44413480
C        2.19589098      -3.10681562       3.76931634
C        3.51909513      -3.31965990       3.36020965
H        5.79489241      -3.74235932       2.18717459
H        5.51559575      -2.82353363       0.80316376
H        3.48986249      -1.53499280       0.48614925
H       -0.36835612      -2.74992557       4.09824189
H       -0.65002277      -1.82291777       2.70193767
H        4.19972564      -3.87077561       4.00466163
C        1.78716354      -3.66568856       5.03193383
C        1.44485430      -4.13374465       6.08937597
Br       0.89136921      -4.89055176       7.79917048
C       -0.00445707       0.01189536      -1.78238275
H       -0.66409135       0.67374010      -2.43557963
H        0.65740317      -0.63156657      -2.45157240
C       -0.90989263      -0.90692880      -0.91072765
C        0.90977584       0.90977584      -0.90977584
C       -0.00465871       1.77757030       0.00794375
H       -0.66225468       2.44313916      -0.64384735
H        0.64322798       2.43503045       0.67728295
C       -1.78241447       0.00034974      -0.00472694
H       -2.45427497      -0.65498947       0.64260836
H       -2.43311707       0.67328779      -0.65473579
C       -0.91132561       0.90220522       0.91563759
C       -0.01476271      -0.02253852       1.78660255
H       -0.67934791      -0.69751639       2.42135241
H        0.63392994       0.61504881       2.47327442
C        0.01484550      -1.77751727      -0.01636693
H        0.67870853      -2.42144646      -0.68295456
H       -0.62264859      -2.45592969       0.64226336
C        1.78714474       0.01002794       0.00389507
H        2.44202412       0.67113390       0.66197326
H        2.45385902      -0.65136977      -0.64189061
C        0.91606151      -0.90478549       0.90901405
