165
Properties=species:S:1:pos:R:3 pbc="F F F"
C        0.00000000       0.00000000       0.00000000
O        9.05731319      -3.30232947      -3.59662518
C        7.88284477      -2.95245803      -3.67159714
N        7.48632463      -1.68884417      -4.06805152
C        8.47857355      -0.71039459      -4.48357332
C        7.84709970       0.63591440      -4.84016754
N        7.10098525       1.21109605      -3.73419975
C        6.65908946       2.51532587      -3.78713702
O        6.90481907       3.27445279      -4.72263150
C        5.86520249       2.96712135      -2.56177915
O        4.45370525       2.81509872      -2.63764055
C        4.01003569       1.55290019      -2.37114755
O        4.73197113       0.56181614      -2.36824805
C        2.62396756       1.60598758      -1.96518857
C        1.64518862       2.57767987      -2.07283127
C        0.51623232       2.10333968      -1.35691509
C        0.86715093       0.86715093      -0.86715093
O        2.12842324       0.54526674      -1.25354190
C        6.72118573      -3.89112289      -3.32385126
O        6.65931346      -5.08048867      -4.10502241
C        6.33650431      -4.87540741      -5.41531032
O        6.11742839      -3.77079042      -5.90081783
C        6.26916282      -6.14609691      -6.09966635
C        6.29434098      -7.45426382      -5.64530197
C        6.19473495      -8.28951306      -6.78537521
C        6.12087164      -7.44670893      -7.86934103
Br       6.00027870      -7.99621190      -9.64791826
O        6.15005513      -6.14872116      -7.46507716
H        6.57516526      -1.63955497      -4.51383065
H        9.01873333      -1.11583321      -5.34634032
H        9.19692268      -0.59282921      -3.66292591
H        7.14957637       0.52186343      -5.67757157
H        8.62437991       1.34587143      -5.14465050
H        6.57233809       0.57335631      -3.13772751
H        6.06834597       4.03399043      -2.41658166
H        6.25463391       2.47071167      -1.66303093
H        1.74679559       3.52931564      -2.57815709
H       -0.42561010       2.61145440      -1.20027367
H        5.75932141      -3.36689201      -3.36522945
H        6.86189022      -4.19225727      -2.28039485
H        6.37129852      -7.76353113      -4.61123155
H        6.18374254      -9.37077854      -6.81024032
O      -10.25958647       0.13407575       0.77390182
C       -9.17431985       0.33590047       0.23643551
N       -8.64084496      -0.48552984      -0.73915717
C       -9.39915419      -1.62697564      -1.22562244
C       -8.62240157      -2.43437555      -2.26640451
N       -7.35868502      -2.93454729      -1.75304873
C       -6.63287515      -3.86848103      -2.46019617
O       -7.01954274      -4.36663947      -3.51572115
C       -5.31298650      -4.27532690      -1.80578958
O       -4.16280427      -3.54031765      -2.20332260
C       -4.02092063      -2.33737116      -1.57579164
O       -4.92268460      -1.77645671      -0.96289401
C       -2.63680800      -1.92534420      -1.63299152
C       -1.56093543      -2.33427220      -2.40049213
C       -0.41935543      -1.65752785      -1.89960380
C       -0.86715093      -0.86715093      -0.86715093
O       -2.21009535      -1.00011015      -0.71702638
C       -8.28593881       1.53163862       0.60038608
O       -8.88674045       2.80677052       0.39612274
C       -9.08977351       3.12819153      -0.91482524
O       -8.79131375       2.39635283      -1.85249489
C       -9.66863930       4.44904190      -1.00313486
C       -9.86868729       5.44603419      -0.06272603
C      -10.48579587       6.52995435      -0.73475559
C      -10.63317135       6.13250113      -2.04283353
Br     -11.41549938       7.15572294      -3.39220862
O      -10.12907697       4.88198300      -2.21931714
H       -8.02078670      -0.02801086      -1.40064337
H      -10.33657251      -1.25703391      -1.65563403
H       -9.65083015      -2.25443330      -0.36175592
H       -8.39471117      -1.81386968      -3.14043052
H       -9.22355129      -3.28539833      -2.60595223
H       -6.83255747      -2.33025662      -1.12060782
H       -5.13113975      -5.32476917      -2.06300915
H       -5.41881887      -4.25659765      -0.71295999
H       -1.59146856      -3.06014293      -3.20265683
H        0.60391436      -1.75355876      -2.23647358
H       -7.32245133       1.48522373       0.07956876
H       -8.06185966       1.44315718       1.66867467
H       -9.59547436       5.39351198       0.98296344
H      -10.78866903       7.47902636      -0.31356165
O       -8.92733988      -3.39955591       3.82382492
C       -7.75839997      -3.02699687       3.87058078
N       -7.37825284      -1.74921864       4.23649778
C       -8.38076080      -0.78147505       4.65246653
C       -7.76800207       0.58251388       4.97266569
N       -7.05298712       1.15056497       3.84272894
C       -6.63449727       2.46339312       3.86366196
O       -6.87718512       3.23515608       4.78956217
C       -5.87161134       2.90675361       2.61573804
O       -4.45638576       2.78192679       2.66813197
C       -3.99428451       1.52329594       2.41650298
O       -4.69762241       0.51933089       2.44508203
C       -2.61707353       1.59409791       1.98397227
C       -1.65470924       2.58530596       2.05568455
C       -0.53037927       2.11841479       1.32769303
C       -0.86715093       0.86715093       0.86715093
O       -2.11497320       0.52955517       1.28270352
C       -6.58604239      -3.95062171       3.51849342
O       -6.48785993      -5.12394903       4.31993629
C       -6.14507865      -4.88871759       5.62004616
O       -5.93773916      -3.77146383       6.08118047
C       -6.04168374      -6.14503937       6.32608789
C       -6.05084311      -7.46166045       5.89619647
C       -5.91497237      -8.27363786       7.04926259
C       -5.83702252      -7.40964165       8.11612288
Br      -5.67383703      -7.92372898       9.90187702
O       -5.89767248      -6.12013341       7.68887205
H       -6.46018970      -1.67505444       4.66430568
H       -8.89747743      -1.18060208       5.53236511
H       -9.11601261      -0.69228758       3.84329434
H       -7.05332875       0.49677112       5.79891150
H       -8.55265238       1.28371318       5.27853628
H       -6.52355060       0.51160258       3.24826873
H       -6.09714667       3.96686093       2.45491046
H       -6.26807844       2.38672061       1.73357746
H       -1.76474160       3.54415146       2.54537527
H        0.39885169       2.64062071       1.14434896
H       -5.63348517      -3.40826253       3.53243620
H       -6.74013178      -4.27359801       2.48349404
H       -6.14088496      -7.79143035       4.86954432
H       -5.88344965      -9.35387489       7.09362956
O       10.25671543       0.08772829      -0.81737824
C        9.17457058       0.29635815      -0.27622855
N        8.64176724      -0.51873432       0.70503042
C        9.39733121      -1.66131079       1.19311027
C        8.62158703      -2.46107819       2.24051642
N        7.35364301      -2.95807937       1.73455866
C        6.62690945      -3.88598835       2.44865455
O        7.01592085      -4.38134629       3.50463622
C        5.30259217      -4.29001945       1.80149136
O        4.15717576      -3.54852717       2.20074159
C        4.01769115      -2.34763131       1.56876097
O        4.91921100      -1.79308001       0.94974432
C        2.63556713      -1.92955673       1.63001986
C        1.56122726      -2.33074585       2.40372665
C        0.42039431      -1.65131265       1.90478013
C        0.86715093      -0.86715093       0.86715093
O        2.20888467      -1.00637850       0.71196871
C        8.28967899       1.49428515      -0.64147974
O        8.89666354       2.76772493      -0.44509142
C        9.10654601       3.09377230       0.86363352
O        8.80896918       2.36712375       1.80561037
C        9.69129917       4.41253675       0.94396984
C        9.89156386       5.40473626      -0.00144847
C       10.51602040       6.48885632       0.66343303
C       10.66722638       6.09626393       1.97254130
Br      11.45949146       7.12182655       3.31432016
O       10.15865016       4.84862422       2.15638519
H        8.02641349      -0.05585042       1.36717702
H       10.33808766      -1.29351506       1.61763773
H        9.64274778      -2.29342934       0.33084225
H        8.40016920      -1.83596958       3.11287259
H        9.22059211      -3.31319112       2.58111861
H        6.82739581      -2.35423489       1.10179120
H        5.11743842      -5.33760300       2.06387665
H        5.40390936      -4.27630765       0.70815949
H        1.59209317      -3.05337581       3.20879934
H       -0.60184389      -1.74163297       2.24632888
H        7.32820254       1.45409842      -0.11644528
H        8.06074502       1.40227699      -1.70844023
H        9.61374237       5.34898770      -1.04575574
H       10.82108949       7.43487677       0.23699160
