106
Properties=species:S:1:pos:R:3 pbc="F F F"
C        1.79111228       1.79111228      -1.79111228
C        1.24985906       2.91252602      -2.41214659
C        2.05969833       3.71414471      -3.22286779
C        3.41231832       3.40093654      -3.41813887
C        3.94150550       2.27518569      -2.78279288
C        3.13310280       1.47009403      -1.97190767
N        4.15526411       4.25914859      -4.25404470
C        5.48759702       4.13616992      -4.62941051
O        6.25130340       3.24126630      -4.27980444
C        5.95928635       5.29270538      -5.50901482
H        5.66371497       6.24558841      -5.05901375
C        7.45159180       5.26981987      -5.78044527
Br       4.99994081       5.15407929      -7.20949669
H        0.20305526       3.17068815      -2.27528188
H        1.61417805       4.58387939      -3.69900894
H        4.98227983       1.98879153      -2.89726923
H        3.56596374       0.59618640      -1.49143571
H        3.63894951       5.02208153      -4.67668385
H        7.76415467       4.33931219      -6.26773037
H        8.01262621       5.35417015      -4.84342034
H        7.75036289       6.10216529      -6.42653933
C       -1.79111228      -1.79111228      -1.79111228
C       -3.06796329      -2.14251228      -1.36405610
C       -3.86993863      -2.95439974      -2.17237245
C       -3.40221108      -3.41963782      -3.40954482
C       -2.12044721      -3.05286529      -3.82617158
C       -1.31485080      -2.24156389      -3.01868981
N       -4.27330099      -4.23653922      -4.15861719
C       -4.02451735      -4.84639283      -5.38226727
O       -2.98238765      -4.76460163      -6.02538486
C       -5.23305427      -5.61671881      -5.91123348
H       -6.12829463      -4.99011417      -5.84990833
C       -5.04107390      -6.13793760      -7.32284543
Br      -5.52526211      -7.13158881      -4.70666587
H       -3.44773240      -1.79407939      -0.40721349
H       -4.86301109      -3.21719012      -1.81686518
H       -1.71022814      -3.38253150      -4.77558095
H       -0.31880548      -1.97300616      -3.36177421
H       -5.16341347      -4.45059792      -3.72370350
H       -4.17151793      -6.80053707      -7.39914223
H       -4.88313485      -5.30754017      -8.01954167
H       -5.91894368      -6.69814832      -7.66197551
C       -1.79111228       1.79111228       1.79111228
C       -3.09737540       1.40364200       2.07351428
C       -3.90289108       2.21672331       2.87709643
C       -3.40967036       3.41958431       3.40213905
C       -2.09437816       3.79108513       3.11402078
C       -1.28617293       2.98009212       2.30883945
N       -4.28968489       4.18066837       4.19810414
C       -4.04872488       5.41484831       4.78960427
O       -3.00291024       6.05300630       4.71645760
C       -5.22999364       5.90711417       5.62389875
H       -5.57617042       5.10680174       6.28534498
C       -4.92130827       7.16165230       6.41889636
Br      -6.69668747       6.28329281       4.38353651
H       -3.49895148       0.47614949       1.67392431
H       -4.92047130       1.89420113       3.08239396
H       -1.66149330       4.70998850       3.49685880
H       -0.26710233       3.29218670       2.09429682
H       -5.22727967       3.80966133       4.30077388
H       -4.61010197       7.98943457       5.77166070
H       -4.10723692       6.97525698       7.12772280
H       -5.79434191       7.49427340       6.99045220
C        1.79111228      -1.79111228       1.79111228
C        1.63462703      -1.76636431       3.17354034
C        2.44776609      -2.57154723       3.97739751
C        3.42049678      -3.40441240       3.40648455
C        3.56070190      -3.42192151       2.01686066
C        2.74930059      -2.61606906       1.20973485
N        4.19983553      -4.17923745       4.28938442
C        5.24276409      -5.04033030       3.97008306
O        5.65885199      -5.27415600       2.83936615
C        5.81735191      -5.74723306       5.19642158
H        5.00456055      -6.16531753       5.79843906
C        6.83212830      -6.82013305       4.84959558
Br       6.68514018      -4.38111180       6.29726482
H        0.88801029      -1.12567519       3.63533980
H        2.30836898      -2.53390103       5.05479638
H        4.29549331      -4.04994984       1.52289745
H        2.87988276      -2.64293214       0.13077094
H        4.01463725      -4.04614151       5.27693612
H        7.67612925      -6.41546943       4.27959855
H        6.36867122      -7.60258196       4.23896351
H        7.23422915      -7.29280175       5.75203661
C       -0.00445707       0.01189536      -1.78238275
H       -0.66409135       0.67374010      -2.43557963
H        0.65740317      -0.63156657      -2.45157240
C       -0.90989263      -0.90692880      -0.91072765
C        0.90977584       0.90977584      -0.90977584
C       -0.00465871       1.77757030       0.00794375
H       -0.66225468       2.44313916      -0.64384735
H        0.64322798       2.43503045       0.67728295
C       -1.78241447       0.00034974      -0.00472694
H       -2.45427497      -0.65498947       0.64260836
H       -2.43311707       0.67328779      -0.65473579
C       -0.91132561       0.90220522       0.91563759
C       -0.01476271      -0.02253852       1.78660255
H       -0.67934791      -0.69751639       2.42135241
H        0.63392994       0.61504881       2.47327442
C        0.01484550      -1.77751727      -0.01636693
H        0.67870853      -2.42144646      -0.68295456
H       -0.62264859      -2.45592969       0.64226336
C        1.78714474       0.01002794       0.00389507
H        2.44202412       0.67113390       0.66197326
H        2.45385902      -0.65136977      -0.64189061
C        0.91606151      -0.90478549       0.90901405
