186
Properties=species:S:1:pos:R:3 pbc="F F F"
C        1.79199270       1.79199270      -1.79199270
C        2.32574004       2.97070435      -1.27554937
C        3.13168851       3.77754244      -2.08266766
C        3.39849387       3.40631540      -3.40509578
C        2.85889467       2.21969627      -3.91460311
C        2.05465100       1.41116971      -3.10702645
C        4.24590923       4.25672869      -4.24198246
C        3.82175102       5.12390604      -5.18172771
C        4.75734303       5.94305367      -6.03060766
H        5.76840989       5.52884516      -5.90994588
O        4.46349666       5.78231108      -7.43442115
C        3.14586449       5.93790029      -7.76907916
C        2.87303818       6.24826235      -9.10112658
C        1.55352915       6.43150015      -9.51993468
C        0.50408403       6.29652085      -8.60973882
C        0.77247245       5.96592690      -7.28150845
C        2.09578934       5.77891990      -6.86626350
C        2.38473448       5.37053404      -5.48038723
O        1.49663009       5.29505909      -4.64269258
C        4.89136260       7.42716925      -5.67444990
C        5.72677942       8.23938234      -6.46551267
C        5.89910408       9.59555963      -6.17731451
C        5.23846895      10.15829782      -5.08911359
C        4.41394791       9.37556732      -4.28678095
C        4.24606714       8.01671375      -4.57332434
H        2.11571506       3.27574325      -0.25437599
H        3.53291811       4.70351556      -1.67830497
H        3.05318365       1.92024298      -4.94131281
H        1.63568937       0.49522805      -3.51390261
H        5.31082165       4.13175305      -4.05629637
H        3.68717721       6.35808914      -9.81266380
H        1.34309627       6.68128086     -10.55727655
H       -0.52296691       6.44054775      -8.93618011
H       -0.04680240       5.84459106      -6.57566855
H        6.24888274       7.81465396      -7.32207398
H        6.54655960      10.20028871      -6.80617321
H        3.89533391       9.80948001      -3.43506918
H        3.59650920       7.43981605      -3.91745152
C        5.41132820      11.55633548      -4.79043252
C        5.55609782      12.72719202      -4.54028712
Br       5.79017806      14.62036802      -4.13582317
C       -1.79199270      -1.79199270      -1.79199270
C       -1.20296395      -2.70469444      -2.66433538
C       -2.00983742      -3.51063533      -3.47142588
C       -3.40314688      -3.39917312      -3.40758506
C       -3.98571586      -2.48030916      -2.52716902
C       -3.17919079      -1.67563643      -1.71801993
C       -4.24000824      -4.24949363      -4.25511850
C       -4.84285237      -3.88200111      -5.40253129
C       -5.72010720      -4.80513655      -6.20576061
H       -5.95064219      -5.67798833      -5.57857041
O       -7.00314672      -4.20178345      -6.47529873
C       -6.94813010      -2.92929931      -6.97541454
C       -8.07337757      -2.48178422      -7.66726532
C       -8.09177731      -1.19761188      -8.21557478
C       -6.98868359      -0.35570358      -8.06595653
C       -5.86999567      -0.79303744      -7.35687469
C       -5.85670715      -2.07911392      -6.80515168
C       -4.70461310      -2.52748941      -6.00355324
O       -3.69955455      -1.83866191      -5.89616531
C       -5.11760913      -5.38646808      -7.48890455
C       -5.91582236      -6.22488608      -8.29096599
C       -5.41331361      -6.79566135      -9.46300325
C       -4.10097686      -6.53699016      -9.84791334
C       -3.28895439      -5.71874850      -9.06859329
C       -3.79158742      -5.15181676      -7.89270106
H       -0.12230318      -2.79172494      -2.73180618
H       -1.54371993      -4.21029044      -4.16072827
H       -5.06641922      -2.37873094      -2.46958929
H       -3.64108012      -0.96130615      -1.04243377
H       -4.36441606      -5.26094517      -3.87350984
H       -8.93322598      -3.13513947      -7.78956471
H       -8.96695897      -0.85311043      -8.76158429
H       -7.00315435       0.64357413      -8.49418072
H       -5.01653665      -0.13070944      -7.22621111
H       -6.94565816      -6.43517128      -8.00478124
H       -6.05185321      -7.43586883     -10.06529947
H       -2.26273958      -5.51314525      -9.36399827
H       -3.12134802      -4.52226868      -7.31016007
C       -3.58022453      -7.12118463     -11.05668703
C       -3.14409446      -7.61044751     -12.06903499
Br      -2.43890902      -8.40154420     -13.70591602
C       -1.79199270       1.79199270       1.79199270
C       -2.88639463       1.23531178       2.45028736
C       -3.69331776       2.04236012       3.25622074
C       -3.40677987       3.40450110       3.39862408
C       -2.30439844       3.95439872       2.73439688
C       -1.49563923       3.14714614       1.93006178
C       -4.25636705       4.24123191       4.24702142
C       -5.22129061       5.08128421       3.82480994
C       -6.03441343       5.93895365       4.75763728
H       -5.54105006       5.92626326       5.73988761
O       -6.00347162       7.32389875       4.35285852
C       -6.27797776       7.54429065       3.03057553
C       -6.70852240       8.82585787       2.68804684
C       -7.01712892       9.12781782       1.36001724
C       -6.88781028       8.15158544       0.37094797
C       -6.43775564       6.87491698       0.70723518
C       -6.12540292       6.57706234       2.03850749
C       -5.59208599       5.25019895       2.39337080
O       -5.51600269       4.35422640       1.56415267
C       -7.47338825       5.48914062       5.03045290
C       -8.28231894       6.28210426       5.86725123
C       -9.59655304       5.91195245       6.16347273
C      -10.11966406       4.73879530       5.62742099
C       -9.33840903       3.93335751       4.80452963
C       -8.02106901       4.30239639       4.51263983
H       -3.12622093       0.18185304       2.33776033
H       -4.55445208       1.60499054       3.75529602
H       -2.07167575       5.01175461       2.83130909
H       -0.64593987       3.58493590       1.41394426
H       -4.04179754       4.14737291       5.30970063
H       -6.81434669       9.58823011       3.45535336
H       -7.36031303      10.12542718       1.09591348
H       -7.12944649       8.38697437      -0.66265992
H       -6.32129045       6.11863716      -0.06647040
H       -7.88853248       7.20439803       6.29268017
H      -10.20008797       6.54396329       6.80897026
H       -9.74145297       3.01549930       4.38293083
H       -7.44328479       3.64137245       3.86911954
C      -11.47468333       4.35527184       5.92814103
C      -12.60951196       4.03407094       6.17999406
Br     -14.44443389       3.51471625       6.58721911
C        1.79199270      -1.79199270       1.79199270
C        1.69183614      -1.70153344       3.17862419
C        2.49916729      -2.50772257       3.98500876
C        3.40747551      -3.39906011       3.40336944
C        3.49998081      -3.48379256       2.00942067
C        2.69106214      -2.67935752       1.20242750
C        4.24707649      -4.24119806       4.25634583
C        5.54191285      -4.02577721       4.55969471
C        6.35376683      -4.95780924       5.41942829
H        5.78962035      -5.89569243       5.52188815
O        7.57930326      -5.34059594       4.76032969
C        8.30578062      -4.30161026       4.24545306
C        9.66172222      -4.53912399       4.02158090
C       10.47290028      -3.52610819       3.50595551
C        9.92823633      -2.27669887       3.20540849
C        8.56832749      -2.04268592       3.40889439
C        7.75755842      -3.06154891       3.92186541
C        6.30941693      -2.84299662       4.08324220
O        5.80666792      -1.74634277       3.88137107
C        6.63328759      -4.50387454       6.85581963
C        7.42070862      -5.32719052       7.68377529
C        7.69415210      -4.97104041       9.00678571
C        7.17967249      -3.78462283       9.52158504
C        6.39186061      -2.95762161       8.72681397
C        6.11460826      -3.31766281       7.40383416
H        0.99930773      -1.00460286       3.64192371
H        2.42675539      -2.42164745       5.06633581
H        4.20408071      -4.16790882       1.54274992
H        2.77487471      -2.74836891       0.12157642
H        3.73334570      -5.11636181       4.64916356
H       10.09108927      -5.50922838       4.25761251
H       11.53167643      -3.71054030       3.33943695
H       10.56060877      -1.48800596       2.80514621
H        8.14048134      -1.07380553       3.15917034
H        7.83274852      -6.25771457       7.29514760
H        8.30760064      -5.62275184       9.62266904
H        5.98687862      -2.02954900       9.12345548
H        5.49017767      -2.64490438       6.81869473
C        7.46154072      -3.41268761      10.88386786
C        7.69760536      -3.10119187      12.02477973
Br       8.07930192      -2.59752960      13.86953772
C       -0.00445707       0.01189536      -1.78238275
H       -0.66409135       0.67374010      -2.43557963
H        0.65740317      -0.63156657      -2.45157240
C       -0.90989263      -0.90692880      -0.91072765
C        0.90977584       0.90977584      -0.90977584
C       -0.00465871       1.77757030       0.00794375
H       -0.66225468       2.44313916      -0.64384735
H        0.64322798       2.43503045       0.67728295
C       -1.78241447       0.00034974      -0.00472694
H       -2.45427497      -0.65498947       0.64260836
H       -2.43311707       0.67328779      -0.65473579
C       -0.91132561       0.90220522       0.91563759
C       -0.01476271      -0.02253852       1.78660255
H       -0.67934791      -0.69751639       2.42135241
H        0.63392994       0.61504881       2.47327442
C        0.01484550      -1.77751727      -0.01636693
H        0.67870853      -2.42144646      -0.68295456
H       -0.62264859      -2.45592969       0.64226336
C        1.78714474       0.01002794       0.00389507
H        2.44202412       0.67113390       0.66197326
H        2.45385902      -0.65136977      -0.64189061
C        0.91606151      -0.90478549       0.90901405
