165
Properties=species:S:1:pos:R:3 pbc="F F F"
C        0.00000000       0.00000000       0.00000000
C        0.88208867       0.88208867      -0.88208867
C        1.41583602       2.06080033      -0.36564535
C        2.22178449       2.86763842      -1.17276364
C        2.48858985       2.49641138      -2.49519175
C        1.94899064       1.30979225      -3.00469908
C        1.14474698       0.50126568      -2.19712243
C        3.33600521       3.34682466      -3.33207843
C        2.91184699       4.21400202      -4.27182369
C        3.84743900       5.03314965      -5.12070364
H        4.85850587       4.61894113      -5.00004186
O        3.55359264       4.87240706      -6.52451712
C        2.23596047       5.02799627      -6.85917513
C        1.96313416       5.33835832      -8.19122255
C        0.64362512       5.52159613      -8.61003065
C       -0.40582000       5.38661682      -7.69983480
C       -0.13743157       5.05602287      -6.37160443
C        1.18588532       4.86901588      -5.95635948
C        1.47483045       4.46063002      -4.57048320
O        0.58672607       4.38515507      -3.73278856
C        3.98145858       6.51726523      -4.76454588
C        4.81687539       7.32947832      -5.55560865
C        4.98920006       8.68565560      -5.26741048
C        4.32856492       9.24839380      -4.17920956
C        3.50404388       8.46566329      -3.37687693
C        3.33616312       7.10680972      -3.66342032
H        1.20581103       2.36583922       0.65552803
H        2.62301408       3.79361154      -0.76840095
H        2.14327963       1.01033896      -4.03140879
H        0.72578535      -0.41467597      -2.60399859
H        4.40091762       3.22184903      -3.14639234
H        2.77727319       5.44818512      -8.90275978
H        0.43319224       5.77137684      -9.64737253
H       -1.43287094       5.53064372      -8.02627608
H       -0.95670643       4.93468704      -5.66576452
H        5.33897872       6.90474993      -6.41216996
H        5.63665557       9.29038468      -5.89626919
H        2.98542989       8.89957599      -2.52516515
H        2.68660517       6.52991203      -3.00754750
C        4.50142417      10.64643146      -3.88052849
C        4.64619380      11.81728800      -3.63038310
Br       4.88027404      13.71046399      -3.22591915
C       -0.88208867      -0.88208867      -0.88208867
C       -1.14316332      -0.50228598      -2.19683239
C       -1.95048517      -1.30871606      -3.00298533
C       -2.49820364      -2.49037413      -2.49161521
C       -2.22918542      -2.86428902      -1.17000754
C       -1.41986591      -2.05925594      -0.36401323
C       -3.34057838      -3.32978674      -3.34454318
C       -4.68668456      -3.38242430      -3.32856384
C       -5.48688341      -4.29915192      -4.21525696
H       -4.79372052      -5.03250682      -4.65126151
O       -6.41587202      -5.09018331      -3.44446149
C       -7.18217720      -4.38054710      -2.56040756
C       -8.36957671      -4.98085209      -2.14228622
C       -9.21112392      -4.31672048      -1.24740751
C       -8.86300089      -3.05508094      -0.76254979
C       -7.66617324      -2.46109370      -1.16292879
C       -6.82323031      -3.13139606      -2.05663430
C       -5.52928872      -2.53872956      -2.43792540
O       -5.21540871      -1.41328193      -2.07597906
C       -6.19144298      -3.65708748      -5.41473923
C       -6.98178988      -4.47073550      -6.24943698
C       -7.63388692      -3.94211575      -7.36626347
C       -7.50133282      -2.58928501      -7.66555046
C       -6.71943517      -1.76559312      -6.86155582
C       -6.06297099      -2.29697344      -5.74644873
H       -0.73377570       0.41898360      -2.60133013
H       -2.16250314      -0.99917032      -4.02335311
H       -2.65123287      -3.77686533      -0.75692918
H       -1.22211067      -2.35528206       0.66228476
H       -2.77841213      -3.95945570      -4.03129116
H       -8.64666923      -5.96151188      -2.52003697
H      -10.14051986      -4.78287596      -0.92854579
H       -9.51926529      -2.53798609      -0.06679749
H       -7.38694377      -1.48462844      -0.77217292
H       -7.09755118      -5.53092127      -6.02742615
H       -8.24049625      -4.59144313      -7.99137007
H       -6.61186019      -0.70790313      -7.09040770
H       -5.45752572      -1.61899506      -5.14754393
C       -8.17409206      -2.04009609      -8.81419598
C       -8.73752792      -1.58015037      -9.77618660
Br      -9.64855606      -0.83645704     -11.33164408
C       -0.88208867       0.88208867       0.88208867
C       -1.37016018       0.38395899       2.08816252
C       -2.17742736       1.19054855       2.89421064
C       -2.49824030       2.49132242       2.49063026
C       -2.00212415       2.98339530       1.27796252
C       -1.19274495       2.17787773       0.47251241
C       -3.34246336       3.32948904       3.34295589
C       -4.65614664       3.57244990       3.16907616
C       -5.45417389       4.47648619       4.07063221
H       -4.74431555       5.04582626       4.68734705
O       -6.16111514       5.47903569       3.31036599
C       -6.87690729       4.99839590       2.24782868
C       -7.91076241       5.80653176       1.77542086
C       -8.69335215       5.38250716       0.69939259
C       -8.43837294       4.15377163       0.08848705
C       -7.39198367       3.35269900       0.54551305
C       -6.60709875       3.78273376       1.62142817
C       -5.46245890       2.97165079       2.07183398
O       -5.24165027       1.86640512       1.59661431
C       -6.39397481       3.79725186       5.07204302
C       -7.18769191       4.60503405       5.90923640
C       -8.05037652       4.04003731       6.85185231
C       -8.12865156       2.65557169       6.97194502
C       -7.34878779       1.83533381       6.16246250
C       -6.48171514       2.40221692       5.22246110
H       -1.13818431      -0.62841322       2.40635114
H       -2.56726963       0.79075158       3.82700535
H       -2.24639973       3.99006297       0.94856467
H       -0.81774343       2.56712816      -0.46976363
H       -2.80930813       3.78454529       4.17530557
H       -8.11546387       6.76242188       2.25033234
H       -9.50420555       6.01036615       0.33736991
H       -9.04885571       3.82364674      -0.74845358
H       -7.18283819       2.40222883       0.05867811
H       -7.13978404       5.69014032       5.82597424
H       -8.65433214       4.68633723       7.48264008
H       -7.40539281       0.75298901       6.25178920
H       -5.88611181       1.72471110       4.61324180
C       -9.01863904       2.06935936       7.94038572
C       -9.76400355       1.57840653       8.75145481
Br     -10.96919493       0.78457732      10.06288492
C        0.88208867      -0.88208867       0.88208867
C        1.51380942      -1.99570340       0.33276887
C        2.31974508      -2.80260854       1.13983293
C        2.48868533      -2.49678027       2.49472738
C        1.85105084      -1.37520011       3.03723102
C        1.04673895      -0.56648844       2.22990769
C        3.33687517      -3.34655270       3.33148042
C        2.91300213      -4.29104250       4.19362807
C        3.84651868      -5.10539152       5.04938208
H        4.83615856      -4.62823275       5.01309755
O        3.46472069      -5.04588693       6.43990920
C        2.14197367      -5.29544527       6.68571293
C        1.81339864      -5.69995887       7.97935752
C        0.48568247      -5.98221856       8.30735087
C       -0.51685418      -5.85247466       7.34501114
C       -0.19412954      -5.42827727       6.05604799
C        1.13695445      -5.14225947       5.73204675
C        1.47876347      -4.63591983       4.39126037
O        0.63648734      -4.56070463       3.50747772
C        4.08910615      -6.55556032       4.61860322
C        4.92563924      -7.36519540       5.41112772
C        5.19489819      -8.68976680       5.05760115
C        4.63170244      -9.22273902       3.90172682
C        3.80843093      -8.44119567       3.09695751
C        3.54353397      -7.11360686       3.44925233
H        1.38046995      -2.25040518      -0.71475291
H        2.79792606      -3.67854449       0.70855603
H        1.96872951      -1.12728574       4.08901213
H        0.55134503       0.29829762       2.66206055
H        4.40117696      -3.15070708       3.21727496
H        2.59114670      -5.80603174       8.73103964
H        0.23231218      -6.30517819       9.31445124
H       -1.55023513      -6.07359878       7.60068522
H       -0.97800729      -5.31136591       5.31038651
H        5.37212901      -6.96371666       6.32005294
H        5.84084518      -9.29352703       5.68893723
H        3.36569475      -8.85192087       2.19255541
H        2.89868520      -6.53608415       2.78929536
C        4.90459394     -10.58837049       3.53541969
C        5.13314057     -11.73208685       3.22863747
Br       5.50268114     -13.58137947       2.73259657
