141
Properties=species:S:1:pos:R:3 pbc="F F F"
C        0.00000000       0.00000000       0.00000000
C        0.88205854       0.88205854      -0.88205854
C        0.40993327       1.31378021      -2.11866137
C        1.21809374       2.12173676      -2.91775768
C        2.49220138       2.49756814      -2.47913431
C        2.96424015       2.06229171      -1.23958394
O        4.19184850       2.34230082      -0.70547249
C        4.97966984       3.33782832      -1.36644698
C        6.26853879       3.49860381      -0.57055765
C        7.13909589       4.61290075      -1.11857269
O        6.73137680       5.34371597      -2.02460081
N        8.39098388       4.77952978      -0.53171443
C        8.89950121       3.96104826       0.56525329
C        9.23399161       5.88188122      -1.00188849
C       10.61392552       5.42011726      -1.37155046
C       11.76108133       5.43242159      -0.59573149
C       12.90618118       4.96371298      -1.30559865
C       12.58153129       4.62120368      -2.59430160
Br      13.83067035       3.99358414      -3.84101066
S       10.93865085       4.82880198      -2.95075694
C        2.15354481       1.24871252      -0.44312786
H       -0.57852591       1.02759627      -2.46781895
H        0.85797353       2.45919963      -3.88662650
H        3.09223731       3.12296731      -3.13260886
H        4.42894384       4.28636269      -1.39485862
H        5.22183376       3.01819694      -2.38694638
H        6.82005398       2.55195463      -0.58807937
H        6.01563067       3.72574313       0.47156843
H        8.10687278       3.43089553       1.09384739
H        9.41387373       4.60081432       1.28813404
H        9.59767498       3.22410237       0.15767090
H        9.29327694       6.60741485      -0.18114003
H        8.77568540       6.40855481      -1.84606726
H       11.78133485       5.77204553       0.43338497
H       13.90377001       4.89802202      -0.89007832
H        2.52203882       0.90936708       0.52112529
C       -0.88205854      -0.88205854      -0.88205854
C       -2.10316591      -1.34239355      -0.39681540
C       -2.90565154      -2.14409151      -1.20784514
C       -2.48809843      -2.48101531      -2.49979008
C       -1.26266117      -2.01967817      -2.98377646
O       -0.73319962      -2.29110094      -4.21532125
C       -1.59329366      -2.91894178      -5.17170969
C       -0.79805329      -3.07851892      -6.46112803
C       -1.64749383      -3.63621492      -7.58686058
O       -2.86119130      -3.79889952      -7.43960276
N       -0.99616534      -3.92189224      -8.78417051
C        0.43042593      -3.71208115      -9.01364097
C       -1.79862640      -4.41065506      -9.90847988
C       -1.23566121      -5.67104522     -10.49888681
C       -0.39250566      -5.80769076     -11.58903800
C       -0.10957656      -7.17224228     -11.89367397
C       -0.75599170      -8.01575741     -11.02528746
Br      -0.65162354      -9.88298611     -11.13065550
S       -1.66553376      -7.20204663      -9.85062938
C       -0.45857234      -1.22019332      -2.16661953
H       -2.43639757      -1.08561779       0.60512606
H       -3.85858015      -2.51098896      -0.83423055
H       -3.13899663      -3.11117190      -3.09764495
H       -2.47583858      -2.29026586      -5.34406071
H       -1.90541906      -3.90736712      -4.81419089
H        0.05538091      -3.74014412      -6.27532478
H       -0.40965531      -2.09850860      -6.76164145
H        0.87293981      -3.02297593      -8.29388480
H        0.58027959      -3.29371697     -10.01311662
H        0.94334091      -4.67489098      -8.93255638
H       -1.80117619      -3.61591718     -10.66473845
H       -2.84424692      -4.56535388      -9.62070666
H       -0.00285868      -4.96649447     -12.15064226
H        0.52063508      -7.50299219     -12.70951324
H        0.49566316      -0.86234967      -2.54359410
C       -0.88205854       0.88205854       0.88205854
C       -0.53939129       1.08713526       2.21584830
C       -1.34629910       1.89621285       3.01507623
C       -2.48969765       2.49908411       2.48012206
C       -2.83230264       2.29086671       1.14294645
O       -3.92837638       2.80482772       0.50641771
C       -4.67270946       3.81231822       1.19891746
C       -5.80675548       4.25006349       0.28088127
C       -6.60179424       5.39981142       0.86896368
O       -6.23891886       5.94852316       1.91225155
N       -7.72825976       5.81232378       0.16164455
C       -8.17404020       5.21524586      -1.09398987
C       -8.48673571       6.95605014       0.67497548
C       -9.95129456       6.65141753       0.80288115
C      -10.96726775       6.92086638      -0.09889971
C      -12.24996333       6.53436579       0.39116369
C      -12.15495500       5.99327667       1.64880490
Br     -13.63512023       5.39916100       2.63098393
S      -10.56579879       5.92165545       2.23075553
C       -2.02397018       1.47558311       0.34583190
H        0.34707673       0.62362364       2.64034240
H       -1.08753222       2.05749470       4.05877275
H       -3.09414019       3.11744658       3.13622671
H       -4.01879609       4.66293044       1.42843861
H       -5.09385668       3.40667233       2.12644808
H       -6.46768705       3.39575165       0.09664928
H       -5.38340788       4.56600524      -0.67960776
H       -7.38627531       4.64789889      -1.59025328
H       -8.49853428       6.00532327      -1.77730354
H       -9.00817134       4.53951504      -0.88357993
H       -8.33982391       7.77828773      -0.03627981
H       -8.09061590       7.30472541       1.63496616
H      -10.80021570       7.38420731      -1.06442760
H      -13.17942359       6.66169632      -0.14924957
H       -2.29184548       1.31306346      -0.69462833
C        0.88205854      -0.88205854       0.88205854
C        2.16111444      -1.22731861       0.45394181
C        2.96299060      -2.02961360       1.26498398
C        2.48684733      -2.48185950       2.50019701
C        1.20349314      -2.13579567       2.92682699
O        0.61532048      -2.52590800       4.09839333
C        1.45303016      -3.16148957       5.06942541
C        0.58875641      -3.46153948       6.28740435
C        1.39999335      -4.03974820       7.43082778
O        2.62905346      -4.11266360       7.35797652
N        0.69371880      -4.44958524       8.55892406
C       -0.75588193      -4.34929016       8.70188795
C        1.45349347      -4.96212452       9.70214334
C        0.94228996      -6.29436631      10.16893697
C        0.04166345      -6.56085867      11.18671230
C       -0.16498298      -7.95875816      11.38171762
C        0.59347662      -8.69616360      10.50739635
Br       0.61243589     -10.56902825      10.48380101
S        1.51864747      -7.74549322       9.45406907
C        0.40057260      -1.33538226       2.10943033
H        2.54005575      -0.88047592      -0.50364236
H        3.96134472      -2.30702553       0.93542941
H        3.13974886      -3.10842571       3.09963891
H        2.27671900      -2.49033068       5.34311547
H        1.85560984      -4.10033811       4.67102912
H       -0.20279154      -4.16267387       6.00020566
H        0.11453546      -2.53206057       6.62320933
H       -1.19752285      -3.64204511       7.99939866
H       -0.99901052      -4.01197381       9.71359071
H       -1.19433259      -5.33540890       8.52303014
H        1.35172707      -4.22335061      10.50675414
H        2.52380688      -5.02824327       9.47825732
H       -0.44111122      -5.78778113      11.77332550
H       -0.82233728      -8.38559590      12.12861173
H       -0.59867178      -1.06730135       2.44165104
