174
Properties=species:S:1:pos:R:3 pbc="F F F"
C        1.79117792       1.79117792      -1.79117792
C        1.81463260       1.59236984      -3.16823205
C        2.62501237       2.40199757      -3.96991821
C        3.41621164       3.41527291      -3.40347441
C        3.37397308       3.60697126      -2.01603010
C        2.56650063       2.79285977      -1.21220263
C        4.25677126       4.24490337      -4.32773687
O        4.07097513       4.13761180      -5.54257991
C        5.26849673       5.22698647      -3.76159696
S        6.88153985       5.06441844      -4.57878553
C        7.36968894       3.50568928      -4.01694438
N        6.64378511       2.67616154      -3.30400411
C        7.45851663       1.58864944      -3.17541659
N        8.66196432       1.70303491      -3.74354412
N        8.59239930       2.95051733      -4.26462893
C        9.74657248       3.50865846      -4.92662988
C       10.66415632       4.13887905      -3.90893303
O       10.51929943       5.31153066      -3.56057694
C       11.72248725       3.31939966      -3.24689992
C       12.31132482       2.20394109      -3.85334284
C       13.30506390       1.48289453      -3.18142964
C       13.70829330       1.87376093      -1.90556728
Br      15.04894432       0.89333178      -1.00388860
C       13.13276077       2.98376008      -1.29357284
C       12.14513085       3.70849797      -1.96609672
H        1.21115416       0.81498409      -3.62977478
H        2.63758140       2.23460491      -5.04601289
H        3.95080209       4.37853127      -1.51825827
H        2.55071698       2.95124317      -0.13645611
H        5.43213717       5.11811635      -2.69083305
H        4.88186127       6.23634389      -3.93610046
H        7.16619079       0.68742342      -2.65084046
H        9.43098488       4.26913913      -5.64696001
H       10.22590020       2.72066550      -5.50978998
H       12.03444897       1.87379945      -4.84906896
H       13.75829562       0.61949788      -3.66271159
H       13.44217775       3.29455035      -0.29904277
H       11.70090505       4.57658027      -1.48087663
C       -1.79117792      -1.79117792      -1.79117792
C       -1.50655205      -3.14702286      -1.92165958
C       -2.31674058      -3.94869586      -2.73149171
C       -3.41609382      -3.40346630      -3.41539884
C       -3.69302018      -2.03799426      -3.26596000
C       -2.87870427      -1.23369567      -2.45916310
C       -4.24040513      -4.32661017      -4.26239620
O       -4.04295162      -5.54065069      -4.16756453
C       -5.32379900      -3.76540414      -5.16787702
S       -5.22010328      -4.46440726      -6.84023328
C       -3.73774028      -3.76691015      -7.38767217
N       -2.90783871      -3.04681036      -6.66930168
C       -1.88921403      -2.79200911      -7.54135951
N       -2.04914683      -3.28829795      -8.77109858
N       -3.25293995      -3.89704455      -8.65756107
C       -3.84527260      -4.52036671      -9.81622151
C       -4.60086079      -3.49151759     -10.61959002
O       -5.78074552      -3.23436069     -10.37630082
C       -3.89998863      -2.70837567     -11.68042252
C       -2.79092479      -3.19792997     -12.37975399
C       -2.18425741      -2.41583999     -13.36929066
C       -2.68284942      -1.14654268     -13.65822942
Br      -1.85645514      -0.09567811     -14.99403146
C       -3.78774584      -0.65023401     -12.97211385
C       -4.39846781      -1.43279322     -11.98846451
H       -0.66164001      -3.59194458      -1.40232845
H       -2.08194425      -5.00776116      -2.82849379
H       -4.53262886      -1.55831296      -3.75664981
H       -3.10428845      -0.17456563      -2.35956218
H       -5.29528753      -2.68141191      -5.26438713
H       -6.29101098      -4.03311055      -4.73018409
H       -1.00556897      -2.22672479      -7.27216091
H       -4.53457517      -5.30987649      -9.50263236
H       -3.05621606      -5.01620743     -10.38393219
H       -2.37941325      -4.18438737     -12.19351677
H       -1.32487435      -2.80675761     -13.90887313
H       -4.18214508       0.33844563     -13.19207142
H       -5.26338563      -1.03769850     -11.45727783
C       -1.79117792       1.79117792       1.79117792
C       -3.17623308       1.72364227       1.67535914
C       -3.97799263       2.53447405       2.48446147
C       -3.40357259       3.41688380       3.41450256
C       -2.00742964       3.46586411       3.52368069
C       -1.20396953       2.65777975       2.70981375
C       -4.32816866       4.25198781       4.24925503
O       -5.53363030       3.99077617       4.22676036
C       -3.76923128       5.35224236       5.13560651
S       -4.69084680       6.90300092       4.93089610
C       -4.24984880       7.32693821       3.31553560
N       -3.54279555       6.59399841       2.48715679
C       -3.52639895       7.34719612       1.34898759
N       -4.15908980       8.52086802       1.42858554
N       -4.60271549       8.49748324       2.70734684
C       -5.30055533       9.64363096       3.23767453
C       -4.30606209      10.65455193       3.75135437
O       -3.88299147      10.60136665       4.90704891
C       -3.75753246      11.69731724       2.83393713
C       -4.46148132      12.18163286       1.72549457
C       -3.89354787      13.16657584       0.90926435
C       -2.62425203      13.66517883       1.19819065
Br      -1.86327436      14.99322272       0.08966762
C       -1.91589167      13.19410805       2.30009397
C       -2.48459341      12.21544215       3.11968999
H       -3.64401552       1.04863098       0.96326654
H       -5.06067883       2.47522812       2.38229225
H       -1.50225942       4.11603916       4.22929305
H       -0.12195079       2.71325516       2.80321032
H       -2.71837518       5.56999834       4.95271306
H       -3.86185918       5.01827150       6.17417495
H       -3.03749145       7.03118326       0.43577996
H       -5.95566824       9.33409657       4.05731922
H       -5.95590457      10.04004106       2.46041005
H       -5.45581637      11.82866801       1.47283300
H       -4.45010615      13.53823349       0.05216545
H       -0.92583278      13.57825666       2.53168142
H       -1.92438948      11.85326904       3.98070344
C        1.79117792      -1.79117792       1.79117792
C        3.05957524      -2.16112657       1.35453267
C        3.86146677      -2.96967936       2.16578202
C        3.40381214      -3.41350508       3.41764174
C        2.12730023      -3.02453524       3.84513897
C        1.32181523      -2.21910001       3.03064779
C        4.32199164      -4.27497636       4.23244350
O        5.49410994      -4.39132457       3.86573232
C        3.81726824      -4.93557888       5.50423303
S        4.26758799      -6.69336105       5.56379478
C        3.28855204      -7.31841000       4.28536057
N        2.55163683      -6.61437746       3.45793646
C        2.03393192      -7.56367416       2.62497658
N        2.38339617      -8.82263785       2.90250933
N        3.17658918      -8.64578823       3.98516815
C        3.72515460      -9.79770002       4.65900621
C        2.72606771     -10.33050801       5.65539268
O        2.68420650      -9.89883281       6.80836772
C        1.71398241     -11.34335328       5.23145114
C        1.93455502     -12.24770684       4.18634689
C        0.94706556     -13.17852299       3.84379951
C       -0.25910594     -13.20459729       4.54213016
Br      -1.58846738     -14.46284477       4.07178731
C       -0.48865617     -12.31271793       5.58603192
C        0.49913500     -11.38721044       5.93338010
H        3.43584538      -1.83009452       0.38997314
H        4.85098532      -3.25546356       1.81175032
H        1.71991996      -3.32294672       4.80472495
H        0.33118164      -1.93196550       3.37526913
H        2.73821446      -4.87010158       5.63277054
H        4.28299275      -4.42055955       6.35075333
H        1.38179199      -7.33017228       1.79249041
H        4.64391850      -9.51949246       5.18367307
H        4.01746298     -10.53215078       3.90674192
H        2.86330822     -12.26813051       3.62587866
H        1.12962545     -13.87876691       3.03211274
H       -1.42658603     -12.32723823       6.13511867
H        0.31221953     -10.69383728       6.75230515
C       -0.00445707       0.01189536      -1.78238275
H       -0.66409135       0.67374010      -2.43557963
H        0.65740317      -0.63156657      -2.45157240
C       -0.90989263      -0.90692880      -0.91072765
C        0.90977584       0.90977584      -0.90977584
C       -0.00465871       1.77757030       0.00794375
H       -0.66225468       2.44313916      -0.64384735
H        0.64322798       2.43503045       0.67728295
C       -1.78241447       0.00034974      -0.00472694
H       -2.45427497      -0.65498947       0.64260836
H       -2.43311707       0.67328779      -0.65473579
C       -0.91132561       0.90220522       0.91563759
C       -0.01476271      -0.02253852       1.78660255
H       -0.67934791      -0.69751639       2.42135241
H        0.63392994       0.61504881       2.47327442
C        0.01484550      -1.77751727      -0.01636693
H        0.67870853      -2.42144646      -0.68295456
H       -0.62264859      -2.45592969       0.64226336
C        1.78714474       0.01002794       0.00389507
H        2.44202412       0.67113390       0.66197326
H        2.45385902      -0.65136977      -0.64189061
C        0.91606151      -0.90478549       0.90901405
