141
Properties=species:S:1:pos:R:3 pbc="F F F"
C        0.00000000       0.00000000       0.00000000
C        0.87808378       0.87808378      -0.87808378
C        1.54158947       0.34422547      -1.97256189
C        2.29345056       1.19224234      -2.78521267
C        2.36641302       2.54652093      -2.47188757
N        1.78615767       3.06732090      -1.37110614
C        1.03203469       2.22879642      -0.61493154
N        3.07350606       3.47027493      -3.24796066
C        3.39043993       3.31842578      -4.57984452
O        2.93774900       2.43766727      -5.30555740
C        4.34449657       4.34838556      -5.17017651
H        4.70432114       3.91186541      -6.11007233
C        5.51602031       4.63840764      -4.26000151
N        5.12597824       5.82793660      -3.53444254
C        5.75619388       6.23300819      -2.32228024
C        5.43649185       7.44499822      -1.69322726
C        6.02503068       7.81483916      -0.47743787
C        6.94147670       6.97381446       0.14116231
C        7.27653101       5.77296254      -0.47117519
Br       8.50833599       4.60715674       0.36652307
C        6.70284898       5.40887073      -1.69376552
C        4.12780711       6.52792261      -4.23010200
O        3.62884626       7.61422393      -3.98366064
C        3.70461194       5.69918827      -5.41757506
H        1.47548865      -0.71330818      -2.21183712
H        2.81888583       0.77511318      -3.63719462
H        0.53379077       2.69962579       0.22799041
H        3.18044727       4.36727375      -2.78766409
H        6.41147621       4.88191565      -4.84358578
H        5.72826766       3.79260647      -3.60104586
H        4.72563139       8.14439583      -2.12238482
H        5.75492788       8.76234955      -0.01642145
H        7.38277815       7.26044503       1.09102350
H        7.00557892       4.46029047      -2.12284312
H        2.61391225       5.65431426      -5.47953546
H        4.11034443       6.16781396      -6.32074165
C       -0.87808378      -0.87808378      -0.87808378
C       -1.41176841      -2.05995027      -0.38665815
C       -2.25638747      -2.81016151      -1.20435660
C       -2.53291600      -2.35980695      -2.49209857
N       -1.96483552      -1.25083006      -3.00891913
C       -1.17357295      -0.51965579      -2.18253391
N       -3.39033397      -3.03468958      -3.36671810
C       -4.38675296      -3.90918152      -2.99277574
O       -4.77167465      -4.07105978      -1.83823923
C       -5.05871226      -4.68940589      -4.11494049
H       -5.58544207      -5.51695031      -3.62386649
C       -4.06427019      -5.23723963      -5.11291964
N       -4.04659634      -4.26102291      -6.18073813
C       -2.99243781      -4.18268841      -7.13635608
C       -3.04762199      -3.30128271      -8.22581263
C       -1.98732598      -3.19539801      -9.13458372
C       -0.84250303      -3.96433044      -8.96729539
C       -0.77322973      -4.84883898      -7.89860002
Br       0.78574105      -5.88973706      -7.64497364
C       -1.83761348      -4.96877377      -6.99909799
C       -5.22187404      -3.49363648      -6.17032121
O       -5.60515895      -2.65331593      -6.96825596
C       -6.01878902      -3.85979867      -4.94278759
H       -1.19374993      -2.40148808       0.62122043
H       -2.66865456      -3.73832202      -0.82421705
H       -0.78395803       0.39638921      -2.61785734
H       -3.33881095      -2.68106240      -4.31551176
H       -4.41736889      -6.18590886      -5.53369989
H       -3.08126196      -5.38286412      -4.65779390
H       -3.91160798      -2.67034049      -8.41046357
H       -2.06270757      -2.50182055      -9.96917076
H       -0.01837455      -3.86628689      -9.66753824
H       -1.72501578      -5.67742703      -6.18626971
H       -6.36112856      -2.95711608      -4.42951733
H       -6.88017750      -4.45624277      -5.26247978
C       -0.87808378       0.87808378       0.87808378
C       -1.33271795       0.42010286       2.10555601
C       -2.09021723       1.27466000       2.90602834
C       -2.37795309       2.55766037       2.44920806
N       -2.00426830       2.99223588       1.22808053
C       -1.23920755       2.15476518       0.48178991
N       -3.10568673       3.48714682       3.19890810
C       -3.24206989       3.47706892       4.56957141
O       -2.59514102       2.75908835       5.32674429
C       -4.24863410       4.45766883       5.15675572
H       -4.43529036       4.11047335       6.18049516
C       -5.54640734       4.48585619       4.38216594
N       -5.40471020       5.60614652       3.47750066
C       -6.22016169       5.77076878       2.32055184
C       -6.13940980       6.91773724       1.51757030
C       -6.90959679       7.05206651       0.35564442
C       -7.77248018       6.03535660      -0.03370793
C       -7.87176938       4.89534572       0.75355363
Br      -9.02762284       3.49312991       0.22821691
C       -7.11617340       4.76584178       1.92347006
C       -4.43371272       6.50377696       3.94834204
O       -4.11521194       7.59862361       3.51289528
C       -3.76880698       5.89471130       5.15785699
H       -1.09967721      -0.58142009       2.45576046
H       -2.45271305       0.91557771       3.86290287
H       -0.90953002       2.56473026      -0.46883413
H       -3.38346567       4.29661922       2.65530022
H       -6.39192934       4.69830170       5.04674660
H       -5.72022906       3.54129815       3.86039276
H       -5.48224044       7.74595947       1.76421213
H       -6.82302622       7.95517236      -0.24449970
H       -8.35568211       6.14018528      -0.94366771
H       -7.23844508       3.85364482       2.49662262
H       -2.68206117       5.98605931       5.07964149
H       -4.12480539       6.42822422       6.04587044
C        0.87808378      -0.87808378       0.87808378
C        1.30056934      -2.12250303       0.43530446
C        2.14937527      -2.87484342       1.24668689
C        2.54117548      -2.36316602       2.48048001
N        2.08152584      -1.18735452       2.95570435
C        1.28403731      -0.45815808       2.13356725
N        3.41140794      -3.03774838       3.34258534
C        4.32221845      -4.00017538       2.96631639
O        4.61645763      -4.26121526       1.80330078
C        5.01795236      -4.75121264       4.09389364
H        5.45613638      -5.64236023       3.62776226
C        4.06091882      -5.16523532       5.18827533
N        4.17835395      -4.12396950       6.18603394
C        3.19891541      -3.91318983       7.19937706
C        3.38431794      -2.96990604       8.22049335
C        2.39733345      -2.73426613       9.18570813
C        1.19706497      -3.43249611       9.14456777
C        0.99885174      -4.37658491       8.14523209
Br      -0.63698642      -5.32287735       8.06307874
C        1.98964164      -4.62590094       7.18994265
C        5.39673565      -3.44068832       6.04840774
O        5.88632000      -2.57926269       6.76114814
C        6.08316568      -3.93785198       4.80035761
H        0.99303583      -2.51197604      -0.53099429
H        2.47473865      -3.85129216       0.90516282
H        0.98421504       0.50820404       2.52941515
H        3.44732127      -2.62163900       4.26642485
H        4.38064378      -6.10698780       5.64934605
H        3.04189870      -5.27226399       4.80775729
H        4.29735750      -2.38881847       8.30623607
H        2.57349695      -1.99562280       9.96457914
H        0.43050649      -3.23405718       9.88763601
H        1.77694573      -5.37563034       6.43613645
H        6.44660712      -3.09517602       4.20597883
H        6.92453793      -4.57000254       5.10435958
