186
Properties=species:S:1:pos:R:3 pbc="F F F"
O        7.05754389       0.51488268      -5.40437700
C        6.04390520       0.95776926      -5.92875692
N        4.96335889       1.43033811      -5.22988352
C        5.03889026       1.49112909      -3.78807066
C        3.78155172       2.06353475      -3.18362018
C        2.94477768       1.25856176      -2.37748164
C        1.78983179       1.78983179      -1.78983179
C        1.48301318       3.11465842      -2.02224216
O        0.41385208       3.80915977      -1.54224701
C        0.64698777       5.11227042      -2.11013776
O        1.83414408       5.17439668      -2.92617323
C        2.29193211       3.89861750      -2.81000362
C        3.44219708       3.41017384      -3.39855560
N        5.84925109       1.05871476      -7.27961758
C        6.83679363       0.56127184      -8.21046596
C        6.58156519      -0.88029869      -8.57317592
C        7.15958246      -1.91696017      -7.80390702
C        6.93010620      -3.25937235      -8.12239259
C        6.11879591      -3.54823933      -9.20044562
O        5.78084640      -4.78161142      -9.66913045
C        4.94523008      -4.43698963     -10.79017548
O        4.77527946      -3.01524583     -10.95996437
C        5.54374543      -2.54180610      -9.94140856
C        5.74866504      -1.20653175      -9.65524566
H        4.43824526       2.15347727      -5.69746509
H        5.90025340       2.10609301      -3.50054603
H        5.22905209       0.47688983      -3.41648216
H        3.20474823       0.21563539      -2.20423695
H       -0.21722267       5.38667434      -2.72587125
H        0.74312403       5.83924961      -1.29539792
H        4.06525099       4.06351803      -4.00067693
H        4.88789127       1.04691539      -7.58395690
H        7.84500553       0.68004113      -7.79679593
H        6.78267765       1.18742860      -9.10819965
H        7.78817188      -1.66211013      -6.95056026
H        5.39403216      -4.84759493     -11.70212865
H        3.95942456      -4.89423568     -10.64770119
H        5.27816997      -0.44050205     -10.26289062
C        7.53677494      -4.30109791      -7.33476267
C        8.04486002      -5.17354306      -6.67512261
Br       8.86639061      -6.58421309      -5.60854042
O       -4.95991977      -0.65096490      -7.36591890
C       -4.09766932      -1.51840467      -7.31435740
N       -3.51796530      -1.95448669      -6.15112852
C       -3.99704271      -1.42714682      -4.89390048
C       -3.27493381      -2.03557670      -3.71819615
C       -2.44225942      -1.23872835      -2.89983331
C       -1.78983179      -1.78983179      -1.78983179
C       -1.97188703      -3.13007596      -1.51795077
O       -1.42945343      -3.84369448      -0.49211095
C       -1.98826024      -5.14958641      -0.73154930
O       -2.83815113      -5.20134695      -1.89521591
C       -2.77680938      -3.90878079      -2.31496307
C       -3.44151918      -3.39701942      -3.41238792
N       -3.60105799      -2.18500209      -8.40152335
C       -4.02658723      -1.84227586      -9.73966835
C       -3.14347651      -0.78214594     -10.34881996
C       -3.45717486       0.58609431     -10.17544877
C       -2.64722876       1.58300759     -10.72890527
C       -1.52940240       1.19954860     -11.44114841
O       -0.62577163       2.01275034     -12.05534415
C        0.27878776       1.04793672     -12.62514041
O       -0.07841285      -0.31642607     -12.32515908
C       -1.21420115      -0.13025695     -11.59888980
C       -1.99102019      -1.14007155     -11.06628722
H       -3.21036279      -2.91496876      -6.16385608
H       -5.07250723      -1.62479593      -4.80958927
H       -3.87050160      -0.33787989      -4.91404259
H       -2.31256557      -0.18246774      -3.12958725
H       -1.16751104      -5.86380712      -0.86400476
H       -2.57533667      -5.44736285       0.14492796
H       -4.08199498      -4.03862038      -4.00883059
H       -2.66745119      -2.55223234      -8.29908004
H       -5.07254515      -1.51414183      -9.73515560
H       -3.98019081      -2.75750277     -10.34061233
H       -4.34019455       0.86287832      -9.59930578
H        0.28901713       1.17619169     -13.71377470
H        1.28658313       1.24024207     -12.23971526
H       -1.71042960      -2.17805781     -11.21207112
C       -2.98915205       2.97057544     -10.55186310
C       -3.27551280       4.13266351     -10.40359027
Br      -3.73853392       6.01166164     -10.16384566
O       -0.39732806       6.32014427       6.25933123
C       -1.04890130       6.61556065       5.26596942
N       -1.54769698       5.69953067       4.37635286
C       -1.37210093       4.29224736       4.65374172
C       -2.00710899       3.42760275       3.59399491
C       -1.20623297       2.61652830       2.75805981
C       -1.78983179       1.78983179       1.78983179
C       -3.16377931       1.79113995       1.66499450
O       -3.91235993       1.06120869       0.79169024
C       -5.24474141       1.47795520       1.14669934
O       -5.27310474       2.45332254       2.20828670
C       -3.94497324       2.58271355       2.47286645
C       -3.40405273       3.40380037       3.44307342
N       -1.38460411       7.89349823       4.90948109
C       -0.91016917       9.02536579       5.67299647
C        0.40955756       9.53444228       5.14955770
C        1.62175944       9.01132518       5.65696358
C        2.85481858       9.46780153       5.18014349
C        2.86015412      10.43503453       4.19612180
O        3.94848623      11.00689557       3.60995609
C        3.32394398      11.92717151       2.69518839
O        1.88334240      11.87551248       2.72782792
C        1.68234697      10.93498281       3.69071205
C        0.44792621      10.50726542       4.13803975
H       -2.39892059       5.97786844       3.91239860
H       -1.81312539       4.06251852       5.63124853
H       -0.29606332       4.09475892       4.73160183
H       -0.12367220       2.62787916       2.87306920
H       -5.72559146       1.90874537       0.26098609
H       -5.81609416       0.59787397       1.46380342
H       -4.05348175       4.00229518       4.07366901
H       -1.54988415       8.04292667       3.92595275
H       -0.82620530       8.76186789       6.73376940
H       -1.67022141       9.81115286       5.59693163
H        1.59007250       8.24005140       6.42664311
H        3.64386462      12.94482262       2.94760788
H        3.66096907      11.69549112       1.67836802
H       -0.45976874      10.92541182       3.71537798
C        4.07869523       8.93186819       5.71726675
C        5.10369193       8.48302402       6.16710747
Br       6.76102490       7.75728095       6.89446188
O        0.51540849      -5.40229814       7.05909694
C        0.95780635      -5.92714073       6.04548430
N        1.43025380      -5.22876082       4.96456590
C        1.49152679      -3.78694343       5.03961979
C        2.06372487      -3.18307432       3.78190747
C        1.25874214      -2.37694588       2.94513306
C        1.78983179      -1.78983179       1.78983179
C        3.11448696      -2.02276059       1.48266621
O        3.80880098      -1.54332580       0.41313208
C        5.11180518      -2.11155652       0.64603425
O        5.17404944      -2.92723453       1.83343001
C        3.89845277      -2.81051412       2.29158635
C        3.41018771      -3.39854542       3.44219338
N        1.05826087      -7.27809517       5.85122739
C        0.56083610      -8.20847169       6.83922364
C       -0.88093060      -8.57080460       6.58456842
C       -1.91716393      -7.80102275       7.16267050
C       -3.25975007      -8.11915461       6.93372190
C       -3.54921728      -9.19737347       6.12284602
O       -4.78284552      -9.66577368       5.78543728
C       -4.43884541     -10.78719354       4.95006779
O       -3.01720970     -10.95748819       4.77971951
C       -2.54320226      -9.93883881       5.54771134
C       -1.20777203      -9.65303515       5.75211584
H        2.15307749      -5.69673895       4.43937119
H        2.10685570      -3.49934062       5.90069612
H        0.47746610      -3.41497227       5.22998571
H        0.21595352      -2.20328721       3.20537983
H        5.38573886      -2.72765167      -0.21806761
H        5.83907365      -1.29701724       0.74168067
H        4.06353854      -4.00067639       4.06523102
H        1.04605934      -7.58273610       4.88996813
H        0.68005717      -7.79451916       7.84726626
H        1.18669043      -9.10642144       6.78519403
H       -1.66184310      -6.94755738       7.79090773
H       -4.84959775     -11.69887358       5.39929005
H       -4.89635941     -10.64488713       3.96436235
H       -0.44208494     -10.26107292       5.28157055
C       -4.30103254      -7.33100103       7.54047122
C       -5.17310661      -6.67092240       8.04862377
Br      -6.58317663      -5.60363109       8.87026348
C       -0.00445707       0.01189536      -1.78238275
H       -0.66409135       0.67374010      -2.43557963
H        0.65740317      -0.63156657      -2.45157240
C       -0.90989263      -0.90692880      -0.91072765
C        0.90977584       0.90977584      -0.90977584
C       -0.00465871       1.77757030       0.00794375
H       -0.66225468       2.44313916      -0.64384735
H        0.64322798       2.43503045       0.67728295
C       -1.78241447       0.00034974      -0.00472694
H       -2.45427497      -0.65498947       0.64260836
H       -2.43311707       0.67328779      -0.65473579
C       -0.91132561       0.90220522       0.91563759
C       -0.01476271      -0.02253852       1.78660255
H       -0.67934791      -0.69751639       2.42135241
H        0.63392994       0.61504881       2.47327442
C        0.01484550      -1.77751727      -0.01636693
H        0.67870853      -2.42144646      -0.68295456
H       -0.62264859      -2.45592969       0.64226336
C        1.78714474       0.01002794       0.00389507
H        2.44202412       0.67113390       0.66197326
H        2.45385902      -0.65136977      -0.64189061
C        0.91606151      -0.90478549       0.90901405
