178
Properties=species:S:1:pos:R:3 pbc="F F F"
O        7.05754389       0.51488268      -5.40437700
C        6.04390520       0.95776926      -5.92875692
N        4.96335889       1.43033811      -5.22988352
C        5.03889026       1.49112909      -3.78807066
C        3.78155172       2.06353475      -3.18362018
C        2.94477768       1.25856176      -2.37748164
C        1.78983179       1.78983179      -1.78983179
C        1.48301318       3.11465842      -2.02224216
O        0.41385208       3.80915977      -1.54224701
C        0.64698777       5.11227042      -2.11013776
O        1.83414408       5.17439668      -2.92617323
C        2.29193211       3.89861750      -2.81000362
C        3.44219708       3.41017384      -3.39855560
N        5.84925109       1.05871476      -7.27961758
C        6.83679363       0.56127184      -8.21046596
C        6.58156519      -0.88029869      -8.57317592
C        7.15958246      -1.91696017      -7.80390702
C        6.93010620      -3.25937235      -8.12239259
Br       7.72498474      -4.62427751      -7.09041240
C        6.11879591      -3.54823933      -9.20044562
O        5.78084640      -4.78161142      -9.66913045
C        4.94523008      -4.43698963     -10.79017548
O        4.77527946      -3.01524583     -10.95996437
C        5.54374543      -2.54180610      -9.94140856
C        5.74866504      -1.20653175      -9.65524566
H        4.43824526       2.15347727      -5.69746509
H        5.90025340       2.10609301      -3.50054603
H        5.22905209       0.47688983      -3.41648216
H        3.20474823       0.21563539      -2.20423695
H       -0.21722267       5.38667434      -2.72587125
H        0.74312403       5.83924961      -1.29539792
H        4.06525099       4.06351803      -4.00067693
H        4.88789127       1.04691539      -7.58395690
H        7.84500553       0.68004113      -7.79679593
H        6.78267765       1.18742860      -9.10819965
H        7.78817188      -1.66211013      -6.95056026
H        5.39403216      -4.84759493     -11.70212865
H        3.95942456      -4.89423568     -10.64770119
H        5.27816997      -0.44050205     -10.26289062
O       -8.02600452      -1.33317219      -3.61762686
C       -7.13671605      -1.33480996      -4.45890537
N       -5.82314733      -1.61551375      -4.18491944
C       -5.46106842      -2.01332247      -2.84369912
C       -3.98825441      -2.31468552      -2.72576672
C       -3.15333973      -1.50073062      -1.92675073
C       -1.78983179      -1.78983179      -1.78983179
C       -1.27838012      -2.88247650      -2.45905714
O        0.01013825      -3.32461322      -2.45078390
C       -0.08332873      -4.47964181      -3.30642541
O       -1.41177876      -4.70170820      -3.82122702
C       -2.08667869      -3.67284584      -3.24102871
C       -3.43660794      -3.42205114      -3.39226744
N       -7.32566421      -1.07308731      -5.78883191
C       -8.62556732      -0.69083757      -6.29212654
C       -8.81258714       0.80557118      -6.26742645
C       -9.35669409       1.43228820      -5.12212342
C       -9.53287897       2.81911674      -5.07936422
Br     -10.27521161       3.63020501      -3.54611304
C       -9.15484643       3.56247223      -6.17862801
O       -9.24955116       4.91257485      -6.33138913
C       -8.72110516       5.08280927      -7.66012004
O       -8.29740517       3.84631137      -8.26890421
C       -8.61197044       2.95676409      -7.28814154
C       -8.42389837       1.59087261      -7.36435320
H       -5.31005621      -2.03255520      -4.94657621
H       -6.04317699      -2.89972530      -2.56399015
H       -5.75471114      -1.20672206      -2.16099087
H       -3.57594869      -0.64378826      -1.40488362
H        0.60300766      -4.34763020      -4.15070037
H        0.22488917      -5.36472186      -2.73793887
H       -4.04687231      -4.07793701      -4.00463663
H       -6.52179208      -0.71538151      -6.28158997
H       -9.41759916      -1.18594301      -5.71830041
H       -8.69737875      -1.05919893      -7.32172823
H       -9.63745758       0.82344793      -4.26261235
H       -9.49478500       5.53657387      -8.29035475
H       -7.86329151       5.76333444      -7.61293301
H       -7.99284940       1.14905081      -8.25675994
O       -0.57662723       7.21661044       5.18356590
C       -1.41545335       7.22299285       4.29198517
N       -1.86959722       6.09498002       3.65900327
C       -1.40051691       4.80545480       4.11211830
C       -2.02238064       3.67553033       3.33079568
C       -1.22502123       2.85837043       2.49742942
C       -1.78983179       1.78983179       1.78983179
C       -3.14371421       1.55786681       1.91833274
O       -3.87183096       0.57530586       1.31812204
C       -5.18739408       0.84052166       1.84148021
O       -5.22972467       1.97668027       2.72830904
C       -3.92270869       2.35399593       2.72384861
C       -3.39802783       3.41090647       3.44199221
N       -2.02863429       8.34796175       3.81098739
C       -1.65674033       9.65894406       4.29284704
C       -0.54770729      10.26040006       3.46633506
C        0.80262124      10.03034698       3.81880357
C        1.84418649      10.57591383       3.06139910
Br       3.63731278      10.26760733       3.56082509
C        1.52262693      11.33718688       1.95644226
O        2.38587272      11.95275826       1.10147990
C        1.47166665      12.58450727       0.18557531
O        0.08680873      12.31953113       0.48727561
C        0.21022688      11.55036939       1.60320538
C       -0.84241191      11.02716209       2.32780497
H       -2.81811783       6.15049500       3.32057479
H       -1.63731125       4.69257591       5.17700527
H       -0.30750254       4.79267586       4.02224568
H       -0.15797183       3.05619514       2.41045358
H       -5.86853004       1.02413596       1.00265692
H       -5.53365167      -0.04415863       2.38827853
H       -4.04107640       4.00743678       4.08093277
H       -2.36705786       8.28884771       2.86285799
H       -1.36471119       9.60885535       5.34827604
H       -2.54958930      10.29188163       4.23683497
H        1.03009291       9.41637724       4.69033768
H        1.63594645      13.66789414       0.21661819
H        1.68536454      12.22613154      -0.82787693
H       -1.86489083      11.21733255       2.01833516
O        0.63413825      -5.00761108       7.33505423
C        0.98265525      -5.61612969       6.33164644
N        1.42753863      -5.01148022       5.18456166
C        1.57633837      -3.57419306       5.16755858
C        2.10434654      -3.08002127       3.84433885
C        1.29748383      -2.27573031       3.00760694
C        1.78983179      -1.78983179       1.78983179
C        3.07755871      -2.12073529       1.42161976
O        3.73159296      -1.74717981       0.28648610
C        5.01146773      -2.37972636       0.47820186
O        5.09913501      -3.12784773       1.70773125
C        3.86283360      -2.90703629       2.23068335
C        3.41281827      -3.39674090       3.44136734
N        0.99295340      -6.97965001       6.21498003
C        0.50411394      -7.81930408       7.28511342
C       -0.96902890      -8.10678494       7.13668637
C       -1.92181071      -7.24296046       7.72537957
C       -3.29200170      -7.49098547       7.59414267
Br      -4.54327601      -6.33261692       8.40177873
C       -3.69226015      -8.59442867       6.86883369
O       -4.96918435      -9.00511418       6.63243560
C       -4.74221037     -10.19179411       5.84883218
O       -3.34585942     -10.45833155       5.60752588
C       -2.76777494      -9.42801610       6.28310673
C       -1.40808127      -9.21318218       6.39227805
H        2.08866474      -5.55233437       4.64818851
H        2.25878218      -3.27561680       5.97249345
H        0.59897455      -3.13048792       5.39296160
H        0.28433476      -2.02384658       3.31643922
H        5.19600679      -3.06023982      -0.36092369
H        5.78898896      -1.60707483       0.48170777
H        4.06726740      -4.00080148       4.06137706
H        0.90438522      -7.33790060       5.27647774
H        0.70849024      -7.35598209       8.25737025
H        1.07265903      -8.75549877       7.25014811
H       -1.57971900      -6.37191708       8.28442392
H       -5.17658602     -11.04919447       6.37595743
H       -5.25023438     -10.07883180       4.88429265
H       -0.70897563      -9.89307195       5.91646221
C       -0.00445707       0.01189536      -1.78238275
H       -0.66409135       0.67374010      -2.43557963
H        0.65740317      -0.63156657      -2.45157240
C       -0.90989263      -0.90692880      -0.91072765
C        0.90977584       0.90977584      -0.90977584
C       -0.00465871       1.77757030       0.00794375
H       -0.66225468       2.44313916      -0.64384735
H        0.64322798       2.43503045       0.67728295
C       -1.78241447       0.00034974      -0.00472694
H       -2.45427497      -0.65498947       0.64260836
H       -2.43311707       0.67328779      -0.65473579
C       -0.91132561       0.90220522       0.91563759
C       -0.01476271      -0.02253852       1.78660255
H       -0.67934791      -0.69751639       2.42135241
H        0.63392994       0.61504881       2.47327442
C        0.01484550      -1.77751727      -0.01636693
H        0.67870853      -2.42144646      -0.68295456
H       -0.62264859      -2.45592969       0.64226336
C        1.78714474       0.01002794       0.00389507
H        2.44202412       0.67113390       0.66197326
H        2.45385902      -0.65136977      -0.64189061
C        0.91606151      -0.90478549       0.90901405
