78
Properties=species:S:1:pos:R:3 pbc="F F F"
C        1.78076474       1.78076474      -1.78076474
S        1.44651055       3.40234297      -2.10120334
C        2.83942238       3.54615397      -3.08072402
C        3.57887826       2.37760741      -3.17047952
C        2.92362737       1.34124422      -2.39461746
C        4.81869137       2.10592861      -3.89877749
O        5.30444208       0.98037908      -3.96539641
N        5.45912186       3.14254050      -4.50345045
H        3.30510242       0.32916991      -2.31068925
H        5.12940390       4.09555520      -4.47222967
H        6.32141971       2.93787915      -4.99065913
C        3.11024797       4.81180440      -3.71189951
C        3.33706440       5.87178663      -4.24050899
Br       3.70380738       7.58568825      -5.09522580
C       -1.78076474      -1.78076474      -1.78076474
S       -1.26763395      -3.24835090      -2.43407201
C       -2.77563567      -3.48979251      -3.20087220
C       -3.68761522      -2.47314211      -2.96620786
C       -3.06847023      -1.46573054      -2.12528829
C       -5.06466798      -2.32131307      -3.43741642
O       -5.71937470      -1.30440580      -3.22643707
N       -5.63863019      -3.35225151      -4.11423110
H       -3.57758899      -0.56321464      -1.80415795
H       -5.16809394      -4.22410788      -4.30498695
H       -6.59528924      -3.23431556      -4.42035320
C       -2.96038648      -4.67297126      -4.00059414
C       -3.11511529      -5.66388347      -4.67036126
Br      -3.36529869      -7.26610470      -5.75331804
C       -1.78076474       1.78076474       1.78076474
S       -3.33857311       1.34972208       2.26176167
C       -3.52558168       2.80819823       3.13252046
C       -2.41349176       3.63334271       3.08013073
C       -1.39319025       3.00246988       2.26382892
C       -2.18819148       4.94354810       3.69165789
O       -1.17796461       5.60433295       3.46792001
N       -3.12395957       5.43092014       4.55023309
H       -0.42711219       3.45375700       2.06409238
H       -3.96680288       4.93398654       4.79639936
H       -2.94471977       6.33180226       4.97343595
C       -4.77307483       3.05146511       3.80941194
C       -5.81785034       3.25520112       4.37630856
Br      -7.50716398       3.58462502       5.29293243
C        1.78076474      -1.78076474       1.78076474
S        3.27375556      -1.28664595       2.38965534
C        3.50249063      -2.78513852       3.17867122
C        2.45286349      -3.67243937       3.00166233
C        1.44567859      -3.05346402       2.16034644
C        2.27726663      -5.03170508       3.51442576
O        1.32883790      -5.73765887       3.18372080
N        3.18814354      -5.51581723       4.40115203
H        0.52585852      -3.54963291       1.86947014
H        3.97933369      -4.98491307       4.73294201
H        3.04301054      -6.45212291       4.75482454
C        4.71892467      -2.99477648       3.92025073
C        5.73768817      -3.17034828       4.54132357
Br       7.38494259      -3.45423302       5.54554581
C       -0.00445707       0.01189536      -1.78238275
H       -0.66409135       0.67374010      -2.43557963
H        0.65740317      -0.63156657      -2.45157240
C       -0.90989263      -0.90692880      -0.91072765
C        0.90977584       0.90977584      -0.90977584
C       -0.00465871       1.77757030       0.00794375
H       -0.66225468       2.44313916      -0.64384735
H        0.64322798       2.43503045       0.67728295
C       -1.78241447       0.00034974      -0.00472694
H       -2.45427497      -0.65498947       0.64260836
H       -2.43311707       0.67328779      -0.65473579
C       -0.91132561       0.90220522       0.91563759
C       -0.01476271      -0.02253852       1.78660255
H       -0.67934791      -0.69751639       2.42135241
H        0.63392994       0.61504881       2.47327442
C        0.01484550      -1.77751727      -0.01636693
H        0.67870853      -2.42144646      -0.68295456
H       -0.62264859      -2.45592969       0.64226336
C        1.78714474       0.01002794       0.00389507
H        2.44202412       0.67113390       0.66197326
H        2.45385902      -0.65136977      -0.64189061
C        0.91606151      -0.90478549       0.90901405
