70
Properties=species:S:1:pos:R:3 pbc="F F F"
C        1.78076474       1.78076474      -1.78076474
S        1.44651055       3.40234297      -2.10120334
C        2.83942238       3.54615397      -3.08072402
Br       3.19355240       5.20111137      -3.90604556
C        3.57887826       2.37760741      -3.17047952
C        2.92362737       1.34124422      -2.39461746
C        4.81869137       2.10592861      -3.89877749
O        5.30444208       0.98037908      -3.96539641
N        5.45912186       3.14254050      -4.50345045
H        3.30510242       0.32916991      -2.31068925
H        5.12940390       4.09555520      -4.47222967
H        6.32141971       2.93787915      -4.99065913
C       -1.78076474      -1.78076474      -1.78076474
S       -1.31303150      -3.30395412      -2.33307124
C       -2.79177285      -3.51008369      -3.16444384
Br      -3.06152801      -5.09568878      -4.14349254
C       -3.66008691      -2.43872595      -3.02815233
C       -3.03170285      -1.42077269      -2.20701351
C       -5.00236969      -2.24369193      -3.57733585
O       -5.61289005      -1.18603857      -3.45128896
N       -5.59503080      -3.27880437      -4.23127763
H       -3.50841494      -0.47868409      -1.95786255
H       -5.16165551      -4.18161742      -4.35391584
H       -6.52793660      -3.12978016      -4.59224123
C       -1.78076474       1.78076474       1.78076474
S       -3.35577487       1.37127162       2.22301037
C       -3.53169479       2.81606104       3.11854455
Br      -5.17357482       3.14906228       3.97807223
C       -2.40306289       3.62000603       3.10389627
C       -1.37925836       2.98504589       2.29518480
C       -2.16458954       4.91346838       3.74533955
O       -1.13758182       5.55843066       3.55420508
N       -3.10749614       5.40250155       4.59511511
H       -0.40090063       3.42099596       2.12306498
H       -3.96446164       4.91759929       4.81512785
H       -2.91926158       6.29133977       5.03935664
C        1.78076474      -1.78076474       1.78076474
S        3.31692766      -1.32586971       2.30725948
C        3.51787924      -2.79948707       3.14893407
Br       5.13559748      -3.10102039       4.06409146
C        2.42662819      -3.64811534       3.05222166
C        1.41071966      -3.02175469       2.22701469
C        2.21791588      -4.97686252       3.62861908
O        1.22854666      -5.65495471       3.36671620
N        3.14506288      -5.46268447       4.49736546
H        0.46009116      -3.49001597       1.99485445
H        3.97041685      -4.95265814       4.77411378
H        2.97717995      -6.37692828       4.89584977
C       -0.00445707       0.01189536      -1.78238275
H       -0.66409135       0.67374010      -2.43557963
H        0.65740317      -0.63156657      -2.45157240
C       -0.90989263      -0.90692880      -0.91072765
C        0.90977584       0.90977584      -0.90977584
C       -0.00465871       1.77757030       0.00794375
H       -0.66225468       2.44313916      -0.64384735
H        0.64322798       2.43503045       0.67728295
C       -1.78241447       0.00034974      -0.00472694
H       -2.45427497      -0.65498947       0.64260836
H       -2.43311707       0.67328779      -0.65473579
C       -0.91132561       0.90220522       0.91563759
C       -0.01476271      -0.02253852       1.78660255
H       -0.67934791      -0.69751639       2.42135241
H        0.63392994       0.61504881       2.47327442
C        0.01484550      -1.77751727      -0.01636693
H        0.67870853      -2.42144646      -0.68295456
H       -0.62264859      -2.45592969       0.64226336
C        1.78714474       0.01002794       0.00389507
H        2.44202412       0.67113390       0.66197326
H        2.45385902      -0.65136977      -0.64189061
C        0.91606151      -0.90478549       0.90901405
