57
Properties=species:S:1:pos:R:3 pbc="F F F"
C        0.00000000       0.00000000       0.00000000
C        0.87086072       0.87086072      -0.87086072
S        0.53660652       2.49243895      -1.19129931
C        1.92951836       2.63624994      -2.17082000
C        2.66897423       1.46770339      -2.26057549
C        2.01372335       0.43134019      -1.48471344
C        3.90878735       1.19602458      -2.98887347
O        4.39453806       0.07047506      -3.05549238
N        4.54921783       2.23263648      -3.59354642
H        2.39519839      -0.58073411      -1.40078522
H        4.21949988       3.18565117      -3.56232565
H        5.41151569       2.02797512      -4.08075511
C        2.20034395       3.90190037      -2.80199549
C        2.42716038       4.96188260      -3.33060496
Br       2.79390336       6.67578422      -4.18532177
C       -0.87086072      -0.87086072      -0.87086072
S       -0.33262711      -2.29852584      -1.58919184
C       -1.85683705      -2.56534348      -2.31440777
C       -2.79289518      -1.58791663      -2.01644130
C       -2.17890100      -0.58810790      -1.16276808
C       -4.18914063      -1.46707975      -2.43746501
O       -4.86900605      -0.48001909      -2.17148036
N       -4.75174704      -2.49419180      -3.12946189
H       -2.70594567       0.28599099      -0.79529482
H       -4.25987257      -3.34317751      -3.36442662
H       -5.72143233      -2.39848767      -3.40032592
C       -2.02983781      -3.72752475      -3.14687725
C       -2.17472594      -4.70085156      -3.84407044
Br      -2.40899780      -6.27463870      -4.97137286
C       -0.87086072       0.87086072       0.87086072
S       -2.41914300       0.42891470       1.37228708
C       -2.61228910       1.89431332       2.22998588
C       -1.50936735       2.73019000       2.15769576
C       -0.49100103       2.10138147       1.33739448
C       -1.29136589       4.04886984       2.75344967
O       -0.29035051       4.71759533       2.51255966
N       -2.22329490       4.53549250       3.61661333
H        0.46827745       2.56042805       1.12309891
H       -3.05840626       4.03254225       3.87652819
H       -2.04904843       5.44247815       4.02871934
C       -3.85524694       2.13179728       2.91719559
C       -4.89622413       2.33069010       3.49273371
Br      -6.57939621       2.65228296       4.42333019
C        0.87086072      -0.87086072       0.87086072
S        2.33426951      -0.35484617       1.53122911
C        2.58202666      -1.86720769       2.28735396
C        1.56095680      -2.77613635       2.06015997
C        0.55972662      -2.16125857       1.20879179
C        1.40806923      -4.15245838       2.53315778
O        0.48729948      -4.87353170       2.15967431
N        2.30834933      -4.63622323       3.43082817
H       -0.33898667      -2.67300238       0.88123379
H        3.07655884      -4.09413647       3.79678139
H        2.17886360      -5.58490913       3.75647319
C        3.78416170      -2.06504460       3.05503351
C        4.79094980      -2.23073301       3.69796513
Br       6.41884101      -2.49863716       4.73753119
