162
Properties=species:S:1:pos:R:3 pbc="F F F"
C        1.79240789       1.79240789      -1.79240789
C        1.67324547       3.17705084      -1.71792312
C        2.46893783       3.97678443      -2.53338753
C        3.37713415       3.38727273      -3.41827632
C        3.51890252       1.98926186      -3.50365737
C        2.70370683       1.20036065      -2.67095524
C        4.47616779       1.38596004      -4.45165581
N        4.56430423       1.98890068      -5.65651066
C        5.38771639       1.42459683      -6.54734711
N        6.13629002       0.33206631      -6.35110339
C        6.06432578      -0.21545965      -5.12783253
C        5.23345172       0.27101847      -4.14098712
N        6.89738765      -1.32672267      -4.95692747
C        7.21112404      -1.95000428      -3.77490931
O        6.88577762      -1.60164654      -2.64726824
C        8.10924896      -3.11396619      -3.90434085
C        9.39017002      -2.99718794      -3.34680610
C       10.27080842      -4.07797003      -3.38855692
C        9.87029723      -5.27794875      -3.97449452
C        8.59043612      -5.39993622      -4.52187595
C        7.70375227      -4.31847221      -4.48829496
H        0.96426406       3.63932690      -1.03653451
H        2.38246655       5.05945208      -2.48729118
H        3.98629647       4.03067627      -4.05219059
H        2.76172998       0.11503164      -2.71958387
H        5.45551563       1.89963786      -7.51981648
H        5.16074222      -0.19038882      -3.16639362
H        7.35113021      -1.61747312      -5.81407201
H        9.69569855      -2.06867838      -2.86796873
H       11.26280148      -3.98911308      -2.95107639
H       10.55120484      -6.12644858      -3.99292382
H        8.28964047      -6.35010697      -4.95759676
C        6.38492729      -4.51663958      -5.03146194
C        5.28041137      -4.68260475      -5.48636428
Br       3.49450254      -4.95095639      -6.22190290
C       -1.79240789      -1.79240789      -1.79240789
C       -1.72475260      -1.66664889      -3.17681794
C       -2.54023496      -2.46241278      -3.97646205
C       -3.41832152      -3.37727518      -3.38708650
C       -3.49670994      -3.52574961      -1.98936221
C       -2.66412760      -2.71035550      -1.20053962
C       -4.43762035      -4.49002895      -1.38613434
N       -5.64479055      -4.58090990      -1.98401512
C       -6.52932250      -5.41090292      -1.41943491
N       -6.32473575      -6.16350974      -0.33121423
C       -5.09932850      -6.08846645       0.21109629
C       -4.11846981      -5.25092749      -0.27606000
N       -4.91961279      -6.92575956       1.31777990
C       -3.73336935      -7.23693888       1.93427916
O       -2.60880477      -6.90490221       1.58230764
C       -3.85345051      -8.14089615       3.09472304
C       -3.29066589      -9.41873051       2.96960823
C       -3.32352502     -10.30442726       4.04655697
C       -3.90581112      -9.91201142       5.25097954
C       -4.45841417      -8.63521442       5.38125274
C       -4.43375514      -7.74350637       4.30368649
H       -1.04868336      -0.95249692      -3.63894518
H       -2.49944810      -2.37083858      -5.05892313
H       -4.05239081      -3.98639510      -4.03037742
H       -2.70756323      -2.77350570      -0.11527657
H       -7.50362302      -5.48096988      -1.89037707
H       -3.14212934      -5.17587908       0.18126140
H       -5.77336750      -7.38470066       1.61033906
H       -2.81467426      -9.71787957       2.03756492
H       -2.88197174     -11.29401111       3.95121806
H       -3.91730734     -10.59682528       6.09645255
H       -4.89117035      -8.34070026       6.33474034
C       -4.98197399      -6.42807160       4.51029594
C       -5.44110728      -5.32639499       4.68333136
Br      -6.18348697      -3.54507707       4.96311499
C       -1.79240789       1.79240789       1.79240789
C       -1.73758880       1.65441082       3.17621981
C       -2.55310274       2.45030966       3.97569740
C       -3.41840200       3.37754146       3.38673974
C       -3.48364874       3.53845584       1.98971718
C       -2.65129355       2.72269157       1.20103760
C       -4.41123294       4.51575200       1.38679871
N       -5.62263392       4.61184984       1.97523181
C       -6.49530447       5.45406410       1.41029177
N       -6.27513452       6.21405214       0.33027307
C       -5.04583675       6.13316725      -0.20230534
C       -4.07625169       5.28324132       0.28596430
N       -4.84966509       6.97820264      -1.30027528
C       -3.65564132       7.28447115      -1.90408339
O       -2.53694940       6.93992911      -1.54547918
C       -3.75822590       8.19916821      -3.05777049
C       -3.18577212       9.47107100      -2.91705495
C       -3.20200480      10.36606330      -3.98667280
C       -3.77731686       9.98878092      -5.19925477
C       -4.33953719       8.71787233      -5.34503368
C       -4.33155996       7.81693368      -4.27491862
H       -1.07151826       0.93066555       3.63794165
H       -2.52229459       2.34926910       5.05764613
H       -4.05276004       3.98658543       4.02981786
H       -2.68496610       2.79535630       0.11602309
H       -7.47294864       5.52843966       1.87358168
H       -3.09672551       5.20375249      -0.16373098
H       -5.69700179       7.44683651      -1.59610920
H       -2.71521730       9.75829347      -1.97852187
H       -2.75295071      11.35101806      -3.87920398
H       -3.77584993      10.68077153      -6.03894139
H       -4.76663824       8.43509761      -6.30460558
C       -4.88907310       6.50799641      -4.49731985
C       -5.35599035       5.41176144      -4.68358089
Br      -6.11095606       3.63924222      -4.98474924
C        1.79240789      -1.79240789       1.79240789
C        1.25020377      -2.92453328       2.39348238
C        2.05368052      -3.71779485       3.20763443
C        3.39282226      -3.37353031       3.41633064
C        3.96292173      -2.23721464       2.81168538
C        3.13202714      -1.44928931       1.99370627
C        5.37603729      -1.88502546       3.05272090
N        5.81935632      -2.07681962       4.31353964
C        7.08247689      -1.71350869       4.56367475
N        7.94489928      -1.19254267       3.68201776
C        7.49048200      -1.06011398       2.42610267
C        6.20044589      -1.38290211       2.06210932
N        8.44097058      -0.55428150       1.53234036
C        8.35192560      -0.52108648       0.16301699
O        7.46375926      -0.99873452      -0.53109445
C        9.50899880       0.08806075      -0.52131443
C       10.29852187      -0.75598215      -1.31471585
C       11.37656651      -0.23468596      -2.02985716
C       11.65954938       1.12885535      -1.96385103
C       10.86784402       1.97380398      -1.18166419
C        9.78822390       1.45708728      -0.45756159
H        0.20846030      -3.19225693       2.23940823
H        1.64087434      -4.60247908       3.68585639
H        4.00312666      -4.00418709       4.06184958
H        3.52284714      -0.54870641       1.52479194
H        7.44090644      -1.85703503       5.57702851
H        5.83290409      -1.24923669       1.05460625
H        9.29731967      -0.26310160       1.98730783
H       10.06432269      -1.81656971      -1.38590350
H       11.98587880      -0.88869712      -2.64981113
H       12.49058832       1.53863440      -2.53427385
H       11.09283527       3.03774576      -1.15795925
C        8.98430090       2.38253666       0.29798541
C        8.31101539       3.15760051       0.93075602
Br       7.22236966       4.41081320       1.95389259
C       -0.00445707       0.01189536      -1.78238275
H       -0.66409135       0.67374010      -2.43557963
H        0.65740317      -0.63156657      -2.45157240
C       -0.90989263      -0.90692880      -0.91072765
C        0.90977584       0.90977584      -0.90977584
C       -0.00465871       1.77757030       0.00794375
H       -0.66225468       2.44313916      -0.64384735
H        0.64322798       2.43503045       0.67728295
C       -1.78241447       0.00034974      -0.00472694
H       -2.45427497      -0.65498947       0.64260836
H       -2.43311707       0.67328779      -0.65473579
C       -0.91132561       0.90220522       0.91563759
C       -0.01476271      -0.02253852       1.78660255
H       -0.67934791      -0.69751639       2.42135241
H        0.63392994       0.61504881       2.47327442
C        0.01484550      -1.77751727      -0.01636693
H        0.67870853      -2.42144646      -0.68295456
H       -0.62264859      -2.45592969       0.64226336
C        1.78714474       0.01002794       0.00389507
H        2.44202412       0.67113390       0.66197326
H        2.45385902      -0.65136977      -0.64189061
C        0.91606151      -0.90478549       0.90901405
