105
Properties=species:S:1:pos:R:3 pbc="F F F"
C        0.00000000       0.00000000       0.00000000
C        0.87105167       0.87105167      -0.87105167
C        2.01938651       0.50087408      -1.52174801
N        2.48168066       1.60495987      -2.19060402
H        3.31359055       1.63648980      -2.76772813
C        1.63563788       2.67031055      -1.96938094
C        1.89427803       4.00153289      -2.57166583
N        1.43713771       3.95114460      -3.93578354
C        1.88004864       4.86451896      -4.86217078
O        2.78471451       5.66198608      -4.63987916
C        1.26999073       4.80073346      -6.21650613
C        2.16059977       4.95778396      -7.29331023
C        1.70718754       4.89444282      -8.61141075
C        0.35646414       4.68217066      -8.86847466
C       -0.54153758       4.54522176      -7.80853885
C       -0.09281164       4.60872697      -6.48154564
Br      -1.42594735       4.49113788      -5.13236613
C        0.61720265       2.22818961      -1.14378128
H        2.54863626      -0.44095920      -1.56951663
H        2.95922127       4.25596913      -2.53761000
H        1.33688144       4.78940619      -2.05439299
H        0.59985882       3.41617308      -4.12991930
H        3.21962293       5.12763658      -7.10262808
H        2.40910139       5.01402235      -9.43361208
H       -0.00098646       4.63497774      -9.89469287
H       -1.59692677       4.40003721      -8.03042900
H       -0.20917325       2.82672604      -0.78216924
C       -0.87105167      -0.87105167      -0.87105167
C       -1.36630581      -0.56389098      -2.11181181
N       -2.10581627      -1.63933317      -2.53209511
H       -2.59111397      -1.70808990      -3.41860461
C       -2.08232333      -2.62452325      -1.56848280
C       -2.80475398      -3.90703800      -1.75568476
N       -1.98643199      -4.74141964      -2.59621423
C       -2.52709007      -5.81117016      -3.26847815
O       -3.73243001      -6.02986965      -3.32428009
C       -1.58491590      -6.67839895      -4.02391548
C       -2.02454535      -7.09376264      -5.29338597
C       -1.21684080      -7.89223151      -6.10396881
C        0.03641480      -8.29224901      -5.65127525
C        0.47645603      -7.90399232      -4.38468673
C       -0.33048914      -7.10239025      -3.56458158
Br       0.34824777      -6.71300101      -1.83280342
C       -1.31048830      -2.16060591      -0.51807934
H       -1.26267823       0.31656567      -2.73108112
H       -3.78580833      -3.74994446      -2.21704761
H       -2.95321037      -4.42502197      -0.80244828
H       -0.98304493      -4.69192873      -2.47097755
H       -3.00552649      -6.78861820      -5.65574290
H       -1.56948691      -8.20217063      -7.08507828
H        0.66760716      -8.91697707      -6.27931425
H        1.45132536      -8.24397893      -4.04088587
H       -1.09763656      -2.69883431       0.39674883
C       -0.87105167       0.87105167       0.87105167
C       -1.62615676       1.94343862       0.47241322
N       -2.25090322       2.43808447       1.58825685
H       -2.88302276       3.22945921       1.60532652
C       -1.89826561       1.68774495       2.68931881
C       -2.42684088       2.00055758       4.04007828
N       -3.75478601       1.45039040       4.11888944
C       -4.64722470       1.89471433       5.06479936
O       -4.43761132       2.86735036       5.78161808
C       -5.95532089       1.19206500       5.13984443
C       -7.08048873       2.01733359       5.31387164
C       -8.36377884       1.47303415       5.37622812
C       -8.53656391       0.09632236       5.27422319
C       -7.42629978      -0.73598810       5.12191134
C       -6.13381166      -0.19574308       5.05939239
Br      -4.70306894      -1.44025106       4.93473878
C       -1.03302087       0.69786731       2.25828536
H       -1.77507003       2.39907140      -0.49694774
H       -2.45256450       3.08093715       4.21929874
H       -1.81901904       1.53735963       4.82430194
H       -3.92360368       0.56561118       3.65673635
H       -6.95560200       3.09624939       5.39803620
H       -9.22450745       2.12492616       5.50730221
H       -9.53521769      -0.33171481       5.32518128
H       -7.58084773      -1.81160692       5.06429863
H       -0.57344646      -0.05709428       2.88336984
C        0.87105167      -0.87105167       0.87105167
C        1.45665319      -2.06100183       0.52435359
N        2.15302801      -2.50554395       1.61867258
H        2.69582822      -3.35971492       1.66226534
C        2.01374444      -1.60705051       2.65453442
C        2.66202248      -1.83595477       3.96949949
N        4.04051569      -1.44102899       3.84252117
C        4.98647337      -1.88535863       4.73490639
O        4.76156633      -2.74550958       5.57950384
C        6.36098845      -1.33792537       4.58831650
C        7.40557315      -2.26717830       4.73894251
C        8.73741439      -1.87451333       4.60111340
C        9.04104185      -0.54625257       4.31981504
C        8.01447639       0.39048370       4.18823034
C        6.67396090       0.00288985       4.32638992
Br       5.37764030       1.38734839       4.20726475
C        1.21284273      -0.57299371       2.20333710
H        1.44135905      -2.63059377      -0.39475913
H        2.59473351      -2.88688986       4.27117703
H        2.20314470      -1.22427373       4.75326219
H        4.24591990      -0.63598661       3.26404470
H        7.17851229      -3.30891956       4.96245575
H        9.53408831      -2.60590836       4.71673915
H       10.07823527      -0.23601694       4.21443195
H        8.27360944       1.42826861       3.98819862
H        0.91231710       0.29252801       2.77993294
