102
Properties=species:S:1:pos:R:3 pbc="F F F"
C        1.14790363       5.21739986      -3.99092017
C        2.51376216       4.71773043      -3.52088231
H        3.13428458       4.63065504      -4.42089514
C        3.20944479       5.69702807      -2.59401369
O        4.40744241       5.95539382      -2.73964562
C        2.42341941       6.32247822      -1.46977158
N        2.48006303       3.40502471      -2.90338715
N        1.43719455       3.03312298      -2.12971955
C        1.78842954       1.78842954      -1.78842954
N        2.98924274       1.36849597      -2.28412197
C        3.40899124       2.40341704      -2.97465930
H        0.43302487       5.31457999      -3.16621869
H        0.71354854       4.52703110      -4.72249300
H        1.23856747       6.20185188      -4.46309816
H        1.68736345       7.02103322      -1.87454221
H        3.10335810       6.87644529      -0.81531089
H        1.92966195       5.55117138      -0.87503797
C        4.66452339       2.42608959      -3.67944648
C        5.71603157       2.44507786      -4.26970575
Br       7.41623136       2.47578027      -5.22410506
C       -1.28885181      -5.45472684      -3.61264501
C       -2.63648475      -4.79540848      -3.32048167
H       -3.16510260      -4.74095331      -4.27977886
C       -3.50056344      -5.61740436      -2.38251875
O       -4.70049960      -5.78316888      -2.61881337
C       -2.87876456      -6.19872411      -1.13818053
N       -2.53151015      -3.43768726      -2.81927749
N       -1.52926038      -3.08586227      -1.98491443
C       -1.78842954      -1.78842954      -1.78842954
N       -2.89590425      -1.31476215      -2.43119427
C       -3.35080587      -2.37037949      -3.06588223
H       -0.66107450      -5.53461080      -2.71813825
H       -0.72850569      -4.87782938      -4.35673756
H       -1.43162772      -6.46811077      -4.00377902
H       -2.18032679      -6.99417567      -1.40843641
H       -3.66289485      -6.62633744      -0.50588199
H       -2.36730084      -5.42010355      -0.56846691
C       -4.53659013      -2.35080530      -3.88266404
C       -5.52968446      -2.33441191      -4.56671880
Br      -7.13543398      -2.30790520      -5.67277750
C       -5.81681405       1.86477124       2.67463837
C       -4.71983019       2.51627337       3.51627135
H       -4.99713920       3.57258022       3.61611534
C       -4.63834434       1.94331514       4.91882707
O       -4.51854736       2.68905016       5.89488433
C       -4.66974011       0.44683219       5.09909690
N       -3.40630308       2.48159190       2.90057992
N       -3.01239068       1.41239982       2.17524658
C       -1.78842954       1.78842954       1.78842954
N       -1.38844473       3.01310040       2.24031555
C       -2.41770300       3.42607649       2.94328809
H       -5.62354874       0.80253514       2.48773967
H       -5.90309892       2.35925276       1.70072096
H       -6.78582214       1.93696497       3.18073040
H       -5.66352789       0.06385899       4.85555200
H       -4.45037129       0.20190211       6.14284088
H       -3.91382419      -0.02851855       4.47056565
C       -2.44684309       4.68934348       3.63387290
C       -2.47124792       5.74732958       4.21223768
Br      -2.51070846       7.45800362       5.14740461
C        5.81474855      -1.85686011       2.68461500
C        4.71729681      -2.51324753       3.52183057
H        4.99702046      -3.56910120       3.61971311
C        4.63083079      -1.94404071       4.92561505
O        4.51045906      -2.69253805       5.89948474
C        4.65799249      -0.44794350       5.10973321
N        3.40524161      -2.48032046       2.90291283
N        3.01045861      -1.41029560       2.17928286
C        1.78842954      -1.78842954       1.78842954
N        1.39040199      -3.01524165       2.23621703
C        2.41892573      -3.42739756       2.94074429
H        5.61927242      -0.79464561       2.49990551
H        5.90473545      -2.34866125       1.70967594
H        6.78265779      -1.92789034       3.19296938
H        5.65142024      -0.06185389       4.86966475
H        4.43537687      -0.20620386       6.15353355
H        3.90246428       0.02708729       4.48049430
C        2.44951647      -4.69232732       3.62821567
C        2.47513622      -5.75170599       4.20397296
Br       2.51656118      -7.46463171       5.13492379
C       -0.00445707       0.01189536      -1.78238275
H       -0.66409135       0.67374010      -2.43557963
H        0.65740317      -0.63156657      -2.45157240
C       -0.90989263      -0.90692880      -0.91072765
C        0.90977584       0.90977584      -0.90977584
C       -0.00465871       1.77757030       0.00794375
H       -0.66225468       2.44313916      -0.64384735
H        0.64322798       2.43503045       0.67728295
C       -1.78241447       0.00034974      -0.00472694
H       -2.45427497      -0.65498947       0.64260836
H       -2.43311707       0.67328779      -0.65473579
C       -0.91132561       0.90220522       0.91563759
C       -0.01476271      -0.02253852       1.78660255
H       -0.67934791      -0.69751639       2.42135241
H        0.63392994       0.61504881       2.47327442
C        0.01484550      -1.77751727      -0.01636693
H        0.67870853      -2.42144646      -0.68295456
H       -0.62264859      -2.45592969       0.64226336
C        1.78714474       0.01002794       0.00389507
H        2.44202412       0.67113390       0.66197326
H        2.45385902      -0.65136977      -0.64189061
C        0.91606151      -0.90478549       0.90901405
