181
Properties=species:S:1:pos:R:3 pbc="F F F"
C        0.00000000       0.00000000       0.00000000
N        8.03022995       4.45545094      -3.70396694
C        6.93253741       4.14727963      -3.86186857
C        5.59167014       3.77084918      -4.05475527
C        4.79381759       3.39035429      -3.01084685
N        5.33733649       3.13503120      -1.76224847
N        3.36772858       3.36419944      -3.21912545
C        2.52494207       2.51751113      -2.40712167
C        1.33446291       2.00325809      -2.94331507
C        0.50188765       1.18714276      -2.17322806
C        0.87743270       0.87743270      -0.87743270
C        2.07728243       1.37911242      -0.41243963
N        2.90302293       2.16715351      -1.14757531
C        2.80542410       4.30724489      -4.12079780
C        1.53407363       5.05730901      -3.78460558
C        1.40182566       6.38844494      -4.53036467
C        2.68129429       7.20802786      -4.43584681
C        3.87350375       6.43036961      -4.94696760
O        4.93795445       6.99106590      -5.19232536
C        3.72953757       4.95156672      -5.06003271
C        4.89686137       4.04720096      -5.38458446
H        4.43351222       3.08426395      -5.67151827
C        5.74593030       4.29522204      -6.63848571
C        6.82257180       3.42915898      -6.92853556
C        7.59798820       3.58293294      -8.08250274
C        7.29301206       4.59090589      -8.98803540
C        6.21059311       5.43079052      -8.75599006
C        5.43577841       5.27145312      -7.60048358
H        6.25859223       2.70846930      -1.76015310
H        4.66270920       2.64053308      -1.16823191
H        1.05412869       2.20713288      -3.97192211
H       -0.42067661       0.80125988      -2.59736762
H        2.43109544       1.16257389       0.59195574
H        0.65687779       4.44971879      -4.02676414
H        1.50765678       5.25819435      -2.70619276
H        1.16655795       6.19409543      -5.58499271
H        0.56270375       6.96022141      -4.11831624
H        2.87988475       7.49483626      -3.39752348
H        2.57700881       8.11640928      -5.03847443
H        7.07882677       2.61342849      -6.25444857
H        8.43394237       2.91148252      -8.26007791
H        5.95746690       6.21655805      -9.46332254
H        4.59210474       5.94405440      -7.47745218
C        8.08880898       4.75537452     -10.17684039
C        8.75528891       4.89311700     -11.17246458
Br       9.83293058       5.11583494     -12.78230468
N       -2.72742596      -6.71617787      -6.74604400
C       -3.02680272      -6.08048664      -5.83439625
C       -3.39251096      -5.30396821      -4.72079543
C       -2.64834231      -4.22956512      -4.31711130
N       -1.38559329      -4.00700127      -4.84202161
N       -3.25384869      -3.28381392      -3.41339086
C       -2.43200018      -2.45991648      -2.55765819
C       -2.92833922      -2.03792772      -1.31476913
C       -2.15222333      -1.23576947      -0.47426568
C       -0.87743270      -0.87743270      -0.87743270
C       -0.42444514      -1.35131925      -2.09307010
N       -1.16040403      -2.13745457      -2.91989315
C       -4.65522057      -3.07003727      -3.50820895
C       -5.24488413      -1.67671247      -3.45439161
C       -6.61120681      -1.57122176      -4.13820671
C       -6.59317454      -2.21373781      -5.51825660
C       -6.14512477      -3.65659336      -5.44912283
O       -6.30465512      -4.41598312      -6.40070746
C       -5.43056056      -4.09378164      -4.21679480
C       -4.77763528      -5.45230978      -4.09870172
H       -4.59308545      -5.58087411      -3.01533489
C       -5.58739154      -6.72854226      -4.36370427
C       -4.95990582      -7.98660651      -4.23375401
C       -5.66443775      -9.18083899      -4.41814715
C       -7.02220951      -9.14186239      -4.70788145
C       -7.68025136      -7.92116368      -4.79595865
C       -6.97118052      -6.72831199      -4.60822261
H       -0.84029752      -4.83796751      -5.04894959
H       -0.87475312      -3.31994688      -4.27677420
H       -3.91046657      -2.34940462      -0.97331249
H       -2.55058190      -0.90957049       0.48220149
H        0.57059784      -1.11312959      -2.45918184
H       -5.36459844      -1.35258503      -2.41617724
H       -4.55669650      -0.97421269      -3.94113469
H       -7.37031945      -2.06100082      -3.51432581
H       -6.90117570      -0.51780328      -4.22226243
H       -5.91118542      -1.67561993      -6.18543915
H       -7.60067444      -2.18482557      -5.94639250
H       -3.90223655      -8.05888257      -3.98558471
H       -5.14194651     -10.13006706      -4.33348923
H       -8.74477742      -7.88001544      -5.01255464
H       -7.53789791      -5.80412041      -4.67159301
C       -7.75246027     -10.36790031      -4.90066332
C       -8.36404528     -11.39470706      -5.06211815
Br      -9.35292652     -13.05496674      -5.32317694
N       -2.73086415       6.61115654       6.84762714
C       -3.02240479       6.00693599       5.91234484
C       -3.37854114       5.26886011       4.76987335
C       -2.65168415       4.18600408       4.35733049
N       -1.40916613       3.91721125       4.90823879
N       -3.25725562       3.27973003       3.41406782
C       -2.43457362       2.45669707       2.55830417
C       -2.90884359       2.07962245       1.29257003
C       -2.13170805       1.27912165       0.45142877
C       -0.87743270       0.87743270       0.87743270
C       -0.44445104       1.30819785       2.11618560
N       -1.18150688       2.09198521       2.94425965
C       -4.66561764       3.10031054       3.46753861
C       -5.28897294       1.72469792       3.36231736
C       -6.67494639       1.63757290       4.00811598
C       -6.67663236       2.24403637       5.40450023
C       -6.19032106       3.67598019       5.38453971
O       -6.35527479       4.41479478       6.35127614
C       -5.43288532       4.12558979       4.18266189
C       -4.74270331       5.46915433       4.11678915
H       -4.52668385       5.62040506       3.04220553
C       -5.52633818       6.75895219       4.39434769
C       -4.86382790       8.00308677       4.31335167
C       -5.54229026       9.21024216       4.51089146
C       -6.90772349       9.19940162       4.76482824
C       -7.59872324       7.99447299       4.80417745
C       -6.91560244       6.78866398       4.60344869
H       -0.84847579       4.72809961       5.15063923
H       -0.90139241       3.23166015       4.33842163
H       -3.87345732       2.42526102       0.93446534
H       -2.51310953       0.98791607      -0.52307469
H        0.53429206       1.03483207       2.50117358
H       -5.38972626       1.43036140       2.31327305
H       -4.63186096       0.99227938       3.84790354
H       -7.40477003       2.16275956       3.37811649
H       -6.99375228       0.59029457       4.05719457
H       -6.02624400       1.67145601       6.07454448
H       -7.69538836       2.23057244       5.80593172
H       -3.79853545       8.05399009       4.09417827
H       -4.99375519      10.14733702       4.46441059
H       -8.66924972       7.97566022       4.99243756
H       -7.50714003       5.87828718       4.62818411
C       -7.61129666      10.43879983       4.97092742
C       -8.20053919      11.47679583       5.14353547
Br      -9.15329452      13.15514758       5.42262811
N        8.01452961      -4.53813837       3.63697985
C        6.92605925      -4.20605851       3.80956786
C        5.59645705      -3.80042289       4.02039465
C        4.78603379      -3.42440683       2.98457811
N        5.31021774      -3.20309017       1.72130826
N        3.36494543      -3.36699663       3.21911141
C        2.52282260      -2.51973056       2.40702170
C        1.35273043      -1.97274668       2.95555896
C        0.52104373      -1.15544971       2.18576503
C        0.87743270      -0.87743270       0.87743270
C        2.05849393      -1.41068788       0.39965267
N        2.88320633      -2.20044728       1.13409814
C        2.80239089      -4.28195453       4.14912137
C        1.51094037      -5.01369440       3.85135345
C        1.36799561      -6.32778276       4.62485690
C        2.62976984      -7.17338276       4.52201636
C        3.84598145      -6.40924993       4.99560958
O        4.90420354      -6.98553900       5.23160317
C        3.73205852      -4.92609284       5.08298565
C        4.92219983      -4.03833126       5.36811569
H        4.48263738      -3.06145823       5.64519883
C        5.79034019      -4.27895248       6.61034539
C        6.88844968      -3.42839003       6.86342663
C        7.68282102      -3.57526604       8.00533683
C        7.37635438      -4.55998980       8.93560916
C        6.27407433      -5.38318114       8.74011822
C        5.48037963      -5.23078420       7.59655128
H        6.23912642      -2.79438727       1.69370094
H        4.63374713      -2.70701037       1.13071669
H        1.08838570      -2.15181941       3.99297857
H       -0.38579417      -0.74403534       2.61970973
H        2.39699347      -1.21990945      -0.61518933
H        0.65013627      -4.38494658       4.09827786
H        1.46007426      -5.23429067       2.77767896
H        1.15669255      -6.10914950       5.67980403
H        0.51051749      -6.89101477       4.23970915
H        2.80298195      -7.48343146       3.48583108
H        2.51998683      -8.06809836       5.14380733
H        7.14703385      -2.63055051       6.16911945
H        8.53451172      -2.91674685       8.15424424
H        6.01981904      -6.15050301       9.46702545
H        4.62199648      -5.88927959       7.50233525
C        8.19156571      -4.71729197      10.11216623
C        8.87430519      -4.84903253      11.09753277
Br       9.97823720      -5.06204588      12.69078712
