178
Properties=species:S:1:pos:R:3 pbc="F F F"
O       -5.32128204       3.64184526      -8.99071027
C       -3.92382262       3.48692072      -9.20850181
C       -3.21333722       3.10402091      -7.91550012
O       -1.81509838       2.96141763      -8.15896560
C       -1.10599631       2.65929411      -6.95608821
C        0.38856831       2.49151046      -7.27480330
N        1.22790812       2.19291980      -6.11040228
C        1.43356444       3.35707095      -5.25117620
C        2.03181880       2.94852913      -3.92509606
C        1.25650281       2.22066695      -3.01226032
C        1.79613368       1.79613368      -1.79613368
C        3.10493134       2.14109138      -1.44475464
O        3.63171218       1.69126119      -0.26228321
C        3.50810226       2.65950093       0.78922018
C        2.78197404       2.02384016       1.96379330
C        3.89083308       2.85451406      -2.36000922
C        3.35702903       3.25347989      -3.59272308
H       -5.44451296       4.42763624      -8.43109907
H       -3.51962308       4.41994770      -9.61612624
H       -3.77297545       2.71390042      -9.96890690
H       -3.62541453       2.16454632      -7.52853194
H       -3.38559267       3.87930971      -7.15902408
H       -1.50194405       1.73480568      -6.51891013
H       -1.26202372       3.47864536      -6.24712535
H        0.76605750       3.37051389      -7.81102913
H        0.49117004       1.66005635      -7.98381877
H        0.81535628       1.42642970      -5.58143128
H        0.49727052       3.88321735      -5.03386040
H        2.09012476       4.07472755      -5.75664877
H        0.23104746       1.96205467      -3.26424857
H        2.99360340       3.57863595       0.47846389
H        4.52178069       2.93175604       1.10180679
H        1.70039835       2.04179807       1.79961148
H        2.97986705       2.57044250       2.88952717
H        3.07361397       0.97648491       2.09279077
H        3.98074850       3.79373850      -4.30168261
C        5.26643469       3.18090810      -2.08653685
C        6.41850104       3.45426312      -1.85750374
Br       8.28129489       3.89625506      -1.48717658
O      -10.51735096      -0.22149039       3.42756786
C      -10.12697304      -1.42913621       2.78450934
C       -8.71590707      -1.31075297       2.22047622
O       -8.35145827      -2.53014835       1.57632177
C       -7.05501059      -2.43766393       0.98328851
C       -6.69935420      -3.78077265       0.32524479
N       -5.39054766      -3.80571466      -0.33496788
C       -5.38133756      -3.06545155      -1.59502248
C       -3.96758235      -2.85334094      -2.08452071
C       -3.11926838      -1.98092126      -1.38924044
C       -1.79613368      -1.79613368      -1.79613368
C       -1.31264715      -2.43707096      -2.94105924
O       -0.00348287      -2.27108919      -3.31068453
C        0.15519458      -1.23900129      -4.29457630
C        1.15747173      -0.21732082      -3.78217180
C       -2.15070495      -3.32344882      -3.63120259
C       -3.46896766      -3.53074712      -3.20351721
H      -10.61211820       0.45881770       2.73907815
H      -10.84720326      -1.66178705       1.99253945
H      -10.17837409      -2.24460066       3.51314288
H       -8.00963059      -1.08667115       3.02863801
H       -8.67576720      -0.48112979       1.50415588
H       -6.31540042      -2.19075804       1.75438670
H       -7.07060702      -1.63367979       0.24053981
H       -7.49089635      -4.08775386      -0.36895031
H       -6.69415750      -4.54947182       1.10858416
H       -4.68255222      -3.44031900       0.29965397
H       -5.84077170      -2.07537675      -1.49819982
H       -5.96300998      -3.61238657      -2.34610454
H       -3.48785066      -1.46108643      -0.50841361
H       -0.78711200      -0.74318246      -4.56348100
H        0.55638666      -1.70977209      -5.19834450
H        0.67107792       0.48661958      -3.10028244
H        1.57915278       0.36537958      -4.60531473
H        1.96897935      -0.69909218      -3.22719526
H       -4.10589260      -4.23239531      -3.73788170
C       -1.69157756      -4.06579278      -4.77650931
C       -1.30705837      -4.68750585      -5.73570369
Br      -0.68532336      -5.69276330      -7.28663987
O        2.34499285      -1.10024010      10.75650644
C        0.97924347      -0.77493735      10.52578072
C        0.72775672      -0.51172849       9.04566903
O       -0.64501209      -0.18190825       8.84218101
C       -0.90762046       0.12902756       7.47273800
C       -2.40076820       0.45254646       7.30156740
N       -2.79271029       0.80502366       5.93349625
C       -2.35016632       2.14348620       5.54815906
C       -2.49616321       2.35076104       4.05851975
C       -1.65717786       1.65379284       3.17845938
C       -1.79613368       1.79613368       1.79613368
C       -2.73976402       2.68283502       1.26817831
O       -2.88645561       2.78903602      -0.09023504
C       -2.13064554       3.88097368      -0.63323620
C       -1.21377083       3.35311635      -1.72486630
C       -3.59286429       3.37025657       2.14223550
C       -3.47198491       3.20297127       3.52827581
H        2.86939014      -0.29971803      10.58333052
H        0.71261292       0.09910741      11.12995637
H        0.35884345      -1.60652623      10.87520156
H        0.99201490      -1.39986959       8.45954822
H        1.36634615       0.31287603       8.70621123
H       -0.63508823      -0.72658427       6.84326780
H       -0.28960122       0.98642342       7.18772235
H       -2.70569528       1.23479027       8.00711497
H       -2.97442690      -0.43553169       7.59614995
H       -2.42973268       0.10797387       5.28551071
H       -1.29764335       2.32023885       5.79646606
H       -2.93442293       2.89410067       6.09297748
H       -0.90608759       0.97556089       3.57570222
H       -1.54705674       4.42597569       0.12074302
H       -2.84510453       4.58287465      -1.07624924
H       -0.30741244       2.92323323      -1.28806074
H       -0.90168801       4.15642846      -2.39733409
H       -1.70032672       2.56326667      -2.30628529
H       -4.14935926       3.73001679       4.19679356
C       -4.62984645       4.24485545       1.65917774
C       -5.49831901       4.97733201       1.25461688
Br      -6.90256569       6.16168466       0.60047617
O       10.67227465       2.87765138      -0.48334978
C       10.49194005       1.48902396      -0.23131619
C        9.01500408       1.15880271      -0.05001755
O        8.86197688      -0.23581298       0.20749498
C        7.49384390      -0.57439240       0.44114971
C        7.37904205      -2.08737238       0.68846763
N        6.01651848      -2.55691130       0.95780043
C        5.55064799      -2.19600608       2.29515752
C        4.06174168      -2.41874827       2.42495404
C        3.17535724      -1.58833325       1.72573959
C        1.79613368      -1.79613368       1.79613368
C        1.27389725      -2.80351274       2.61336736
O       -0.07946763      -3.01624376       2.64848045
C       -0.70634833      -2.33820324       3.74652810
C       -1.81516831      -1.44761474       3.20957446
C        2.15538984      -3.64783208       3.30213443
C        3.54030111      -3.45672211       3.20620878
H       10.43852828       3.35525221       0.33094628
H       11.06796925       1.20890941       0.65739102
H       10.90749672       0.92505221      -1.07261263
H        8.45773971       1.43803172      -0.95204426
H        8.60884432       1.74170505       0.78560185
H        6.89146296      -0.29040250      -0.43009370
H        7.14150204      -0.01110889       1.31113606
H        8.06218201      -2.39678351       1.48863500
H        7.74021787      -2.60450741      -0.20968012
H        5.38422581      -2.19100369       0.24798776
H        5.74067097      -1.14288268       2.53079462
H        6.08803988      -2.78991015       3.04355107
H        3.56685359      -0.78884211       1.10165500
H       -0.00618590      -1.74759407       4.35236728
H       -1.14631784      -3.10432724       4.39372053
H       -1.40274906      -0.50314559       2.84218842
H       -2.53722413      -1.20454863       3.99345788
H       -2.33667364      -1.92202914       2.37195260
H        4.21562502      -4.12738746       3.73315714
C        1.68291587      -4.74576382       4.10519995
C        1.28721892      -5.66528166       4.77776733
Br       0.64741041      -7.15206423       5.86525189
C       -0.00445707       0.01189536      -1.78238275
H       -0.66409135       0.67374010      -2.43557963
H        0.65740317      -0.63156657      -2.45157240
C       -0.90989263      -0.90692880      -0.91072765
C        0.90977584       0.90977584      -0.90977584
C       -0.00465871       1.77757030       0.00794375
H       -0.66225468       2.44313916      -0.64384735
H        0.64322798       2.43503045       0.67728295
C       -1.78241447       0.00034974      -0.00472694
H       -2.45427497      -0.65498947       0.64260836
H       -2.43311707       0.67328779      -0.65473579
C       -0.91132561       0.90220522       0.91563759
C       -0.01476271      -0.02253852       1.78660255
H       -0.67934791      -0.69751639       2.42135241
H        0.63392994       0.61504881       2.47327442
C        0.01484550      -1.77751727      -0.01636693
H        0.67870853      -2.42144646      -0.68295456
H       -0.62264859      -2.45592969       0.64226336
C        1.78714474       0.01002794       0.00389507
H        2.44202412       0.67113390       0.66197326
H        2.45385902      -0.65136977      -0.64189061
C        0.91606151      -0.90478549       0.90901405
