125
Properties=species:S:1:pos:R:3 pbc="F F F"
C        0.00000000       0.00000000       0.00000000
C        0.88164276       0.88164276      -0.88164276
C        0.36323506       2.05598685      -1.42425356
C        1.17186734       2.86140799      -2.23038499
C        2.49535515       2.48806990      -2.50268560
C        3.01228690       1.31283512      -1.93924266
C        2.20206565       0.50866766      -1.13125758
C        3.31563673       3.37950575      -3.36869130
O        3.04463975       4.57269989      -3.47074727
N        4.35351558       2.77947172      -4.05102461
N        5.09822377       3.55255973      -4.94180259
C        6.08107727       2.96066665      -5.71239183
O        6.29654535       1.74872224      -5.67494089
C        6.81618345       3.91558407      -6.55148682
N        6.52234154       5.23712992      -6.51890810
N        7.38401804       5.79256379      -7.39231148
C        7.35311901       7.21990669      -7.60673000
C        8.21655725       4.89544725      -7.98680534
C        7.87213212       3.67680317      -7.46271313
H       -0.66290885       2.35516596      -1.22591798
H        0.76591336       3.78081940      -2.64935344
H        4.04695957       1.01827241      -2.09235684
H        2.61170909      -0.39987979      -0.69605505
H        4.48376253       1.77259786      -4.11776486
H        4.94152149       4.56114562      -4.97822441
H        8.08953726       7.48946281      -8.36778867
H        7.59317820       7.71401157      -6.66196301
H        6.35066738       7.49639224      -7.94280583
H        8.96404915       5.18856505      -8.71060469
C        8.48275217       2.41454649      -7.79051068
C        8.99414646       1.35740652      -8.06504113
Br       9.82102778      -0.35189940      -8.50893365
C       -0.88164276      -0.88164276      -0.88164276
C       -1.41671011      -0.36607599      -2.06068937
C       -2.22285586      -1.17470505      -2.86609941
C       -2.50271783      -2.49529005      -2.48810276
C       -1.94681612      -3.00946950      -1.30807905
C       -1.13880409      -2.19926533      -0.50392146
C       -3.36840642      -3.31568605      -3.37974130
O       -3.46394829      -3.04956702      -4.57457160
N       -4.05802548      -4.34783372      -2.77815271
N       -4.94867445      -5.09201947      -3.55189217
C       -5.72626590      -6.06878702      -2.95908284
O       -5.69516324      -6.27900746      -1.74603778
C       -6.56438201      -6.80441225      -3.91446008
N       -6.52461951      -6.51661997      -5.23714009
N       -7.39938356      -7.37687737      -5.79263238
C       -7.60731695      -7.35139737      -7.22104139
C       -8.00156854      -8.20275372      -4.89448758
C       -7.48136482      -7.85522474      -3.67505885
H       -1.21246852       0.65783073      -2.36353730
H       -2.63591818      -0.77100127      -3.78916676
H       -2.10585477      -4.04212638      -1.00960767
H       -0.70947622      -2.60677914       0.40837100
H       -4.12982023      -4.47328709      -1.77101792
H       -4.97991403      -4.93966049      -4.56131699
H       -8.37044981      -8.08562217      -7.49071675
H       -6.66144451      -7.59785579      -7.70985248
H       -7.93768277      -6.34870630      -7.50347638
H       -8.72738755      -8.94832271      -5.18750864
C       -7.81749084      -8.45874161      -2.41157689
C       -8.09899638      -8.96418699      -1.35341074
Br      -8.55416703      -9.78144942       0.35755443
C       -0.88164276       0.88164276       0.88164276
C       -2.02511264       0.34650169       1.47186113
C       -2.83018236       1.15494350       2.27853447
C       -2.49819593       2.50084331       2.48707141
C       -1.33725767       3.02552357       1.90158345
C       -0.53167080       2.21453301       1.09578707
C       -3.38927860       3.32093347       3.35362171
O       -4.09822546       2.78748156       4.20237989
N       -3.38283121       4.68052759       3.12065311
N       -4.26315574       5.48335639       3.84607395
C       -4.35079388       6.83450586       3.56883602
O       -3.70397240       7.35626229       2.65997380
C       -5.27331988       7.55205636       4.45787810
N       -5.93435386       6.90022670       5.44379901
N       -6.66646115       7.85765760       6.04477456
C       -7.50550194       7.50790745       7.16634632
C       -6.51160557       9.09249138       5.49471288
C       -5.61826740       8.92437729       4.46900372
H       -2.29767857      -0.69406617       1.31456269
H       -3.72053340       0.73323923       2.74231358
H       -1.02629013       4.05130506       2.07999363
H        0.36845997       2.62873818       0.64760614
H       -2.94204956       5.11758822       2.31448746
H       -4.79918194       5.07053369       4.61117589
H       -8.05007472       8.39338070       7.50333331
H       -6.86598348       7.13355940       7.96960990
H       -8.20963810       6.73723619       6.84299116
H       -7.03233841       9.96334729       5.86753319
C       -5.13867804       9.95919155       3.58993974
C       -4.73702195      10.82584850       2.85372366
Br      -4.08757802      12.22715948       1.66332452
C        0.88164276      -0.88164276       0.88164276
C        1.10245702      -2.21179315       0.52922530
C        1.90984948      -3.01660373       1.33720711
C        2.48821337      -2.49507701       2.50282026
C        2.27274431      -1.15136148       2.84025889
C        1.46568550      -0.34674554       2.02955984
C        3.33919355      -3.39378786       3.33085236
O        3.88893190      -4.37022475       2.82893026
N        3.43839718      -3.07609148       4.66952325
N        4.15279544      -3.93457840       5.50521225
C        4.19004162      -3.69775274       6.86634139
O        3.56851838      -2.76860237       7.38308773
C        5.03238700      -4.65109640       7.59977094
N        5.69406916      -5.63649750       6.94781291
N        6.35420727      -6.29518938       7.91949666
C        7.18272588      -7.42519949       7.57183033
C        6.14975027      -5.78490601       9.16415355
C        5.30095429      -4.72347584       8.98721828
H        0.65604671      -2.63108420      -0.36895582
H        2.08461713      -4.05425142       1.05721766
H        2.74305133      -0.70322147       3.71131602
H        1.30586972       0.69513768       2.29715232
H        2.85594030      -2.38354357       5.13464138
H        4.68382676      -4.70368602       5.09337874
H        7.60965068      -7.85653535       8.48060270
H        7.98114908      -7.07529277       6.91271093
H        6.56006015      -8.16588510       7.06392019
H        6.61189740      -6.20470965      10.04661184
C        4.79705580      -3.86390678      10.02684675
C        4.37504082      -3.14401769      10.89753559
Br       3.69267830      -1.98001792      12.30536580
