146
Properties=species:S:1:pos:R:3 pbc="F F F"
C        1.79154678       1.79154678      -1.79154678
C        1.27313909       2.96589087      -2.33415758
C        2.08177136       3.77131202      -3.14028901
C        3.40525917       3.39797392      -3.41258962
C        3.92219092       2.22273914      -2.84914669
C        3.11196967       1.41857168      -2.04116161
C        4.22554075       4.28940977      -4.27859532
O        3.95454377       5.48260391      -4.38065130
N        5.26341961       3.68937574      -4.96092863
N        6.00812779       4.46246375      -5.85170662
C        6.99098130       3.87057068      -6.62229585
O        7.20644937       2.65862626      -6.58484492
C        7.72608747       4.82548809      -7.46139085
N        7.43224557       6.14703395      -7.42881213
N        8.29392206       6.70246781      -8.30221551
C        8.26302303       8.12981072      -8.51663402
C        9.12646127       5.80535127      -8.89670936
C        8.78203615       4.58670719      -8.37261715
H        0.24699517       3.26506999      -2.13582200
H        1.67581738       4.69072343      -3.55925747
H        4.95686360       1.92817643      -3.00226087
H        3.52161312       0.51002423      -1.60595908
H        5.39366655       2.68250188      -5.02766889
H        5.85142552       5.47104964      -5.88812844
H        8.99944128       8.39936683      -9.27769269
H        8.50308223       8.62391559      -7.57186704
H        7.26057141       8.40629626      -8.85270985
H        9.87395318       6.09846907      -9.62050871
C        9.39265619       3.32445051      -8.70041470
C        9.90405048       2.26731054      -8.97494515
Br      10.73093180       0.55800463      -9.41883767
C       -1.79154678      -1.79154678      -1.79154678
C       -1.25603243      -2.93425555      -2.38289957
C       -2.06468284      -3.73975060      -3.18893895
C       -3.40568159      -3.39777122      -3.41236990
C       -3.93913584      -2.25472259      -2.80021832
C       -3.12880772      -1.45048638      -1.99240885
C       -4.22527707      -4.28784526      -4.28042352
O       -3.92351340      -5.46919016      -4.42509543
N       -5.29938396      -3.69930701      -4.91503302
N       -6.04756634      -4.46821085      -5.80652097
C       -7.06904951      -3.88367973      -6.53111859
O       -7.31775886      -2.68013209      -6.45202960
C       -7.80094367      -4.83545156      -7.37657118
N       -7.46875110      -6.14820587      -7.39113467
N       -8.33949400      -6.70356167      -8.25554971
C       -8.27425273      -8.12269855      -8.51251650
C       -9.21431924      -5.81467087      -8.79953180
C       -8.88952661      -4.60187482      -8.24995906
H       -0.21640984      -3.20874885      -2.22272847
H       -1.64516438      -4.63455837      -3.64607553
H       -4.98582275      -1.98637990      -2.91509824
H       -3.55122718      -0.56710406      -1.51926519
H       -5.46015717      -2.69519234      -4.94848780
H       -5.86333569      -5.47032215      -5.87694576
H       -9.02469086      -8.39194302      -9.25986692
H       -8.47233885      -8.65033806      -7.57618795
H       -7.27461709      -8.35999043      -8.88497000
H       -9.97405828      -6.10884325      -9.51002944
C       -9.54519920      -3.34923895      -8.52308327
C      -10.09432499      -2.30015640      -8.75182479
Br     -10.98221495      -0.60387866      -9.12168048
C       -1.79154678       1.79154678       1.79154678
C       -3.17794210       1.66211484       1.73313060
C       -3.98273782       2.46959987       2.54103471
C       -3.40250070       3.41356285       3.39975917
C       -2.00627037       3.52511186       3.46269452
C       -1.20214877       2.71497473       2.65457945
C       -4.30336421       4.25113805       4.23904358
O       -5.43093206       3.85975962       4.52710730
N       -3.80498443       5.47548618       4.63325337
N       -4.64027951       6.33430377       5.34771488
C       -4.20536133       7.60510387       5.67338263
O       -3.10803722       8.03082548       5.31105785
C       -5.17236571       8.36238174       6.47821896
N       -6.35278373       7.80966227       6.84564565
N       -6.96297978       8.77179168       7.56383393
C       -8.26725374       8.51514137       8.12707267
C       -6.23603933       9.91649307       7.67598950
C       -5.07627076       9.68006612       6.98502361
H       -3.64181619       0.93807882       1.06799215
H       -5.06551790       2.36332088       2.49695951
H       -1.52306851       4.21375468       4.15047771
H       -0.11996602       2.80611060       2.71151981
H       -2.95250529       5.88894677       4.26238526
H       -5.54918976       5.99476169       5.66665214
H       -8.62338607       9.41037054       8.64274419
H       -8.17865977       7.68632809       8.83387700
H       -8.94942442       8.25685747       7.31329563
H       -6.59162042      10.77856437       8.22274618
C       -3.98682069      10.60767361       6.82302711
C       -3.07440625      11.38454489       6.68735505
Br      -1.59910927      12.64068004       6.46798479
C        1.79154678      -1.79154678       1.79154678
C        3.13286402      -1.97797322       1.46235030
C        3.93785780      -2.78480152       2.27071307
C        3.39995131      -3.41360621       3.40226519
C        2.05333158      -3.20708052       3.73366465
C        1.24940812      -2.39788925       2.92440559
C        4.29866067      -4.26459101       4.23029417
O        5.51284465      -4.08219727       4.22275706
N        3.68914419      -5.26244219       4.96213760
N        4.49410208      -6.14168083       5.68651525
C        3.92245469      -7.20999630       6.35139683
O        2.71514831      -7.44504266       6.28972958
C        4.89139719      -8.00430573       7.11726350
N        6.20203732      -7.66442812       7.14162620
N        6.77342038      -8.59343004       7.93175497
C        8.19306456      -8.53003284       8.18637037
C        5.89743059      -9.51515040       8.41594091
C        4.67601454      -9.15902414       7.90632181
H        3.56211466      -1.50089277       0.58487973
H        4.98668491      -2.92514260       2.01397077
H        1.61668655      -3.64198925       4.62862510
H        0.20661860      -2.24086437       3.19011346
H        2.71723268      -5.54027366       4.84633098
H        5.49587635      -5.95622509       5.75850215
H        8.48846756      -9.37555708       8.81247616
H        8.40764366      -7.59014594       8.70107526
H        8.71737158      -8.57369577       7.22851017
H        6.20490029     -10.32322514       9.06480554
C        3.43095359      -9.84223153       8.14433629
C        2.38821505     -10.41441772       8.34367341
Br       0.70219501     -11.33959440       8.66598468
C       -0.00445707       0.01189536      -1.78238275
H       -0.66409135       0.67374010      -2.43557963
H        0.65740317      -0.63156657      -2.45157240
C       -0.90989263      -0.90692880      -0.91072765
C        0.90977584       0.90977584      -0.90977584
C       -0.00465871       1.77757030       0.00794375
H       -0.66225468       2.44313916      -0.64384735
H        0.64322798       2.43503045       0.67728295
C       -1.78241447       0.00034974      -0.00472694
H       -2.45427497      -0.65498947       0.64260836
H       -2.43311707       0.67328779      -0.65473579
C       -0.91132561       0.90220522       0.91563759
C       -0.01476271      -0.02253852       1.78660255
H       -0.67934791      -0.69751639       2.42135241
H        0.63392994       0.61504881       2.47327442
C        0.01484550      -1.77751727      -0.01636693
H        0.67870853      -2.42144646      -0.68295456
H       -0.62264859      -2.45592969       0.64226336
C        1.78714474       0.01002794       0.00389507
H        2.44202412       0.67113390       0.66197326
H        2.45385902      -0.65136977      -0.64189061
C        0.91606151      -0.90478549       0.90901405
