197
Properties=species:S:1:pos:R:3 pbc="F F F"
C        0.00000000       0.00000000       0.00000000
N        2.46116739       6.19393753      -7.17043677
C        2.90437245       5.61663215      -6.27874636
C        3.44576332       4.91143291      -5.18951454
C        2.69396907       4.08119196      -4.41688911
N        1.32241327       3.97545170      -4.65721057
N        3.31156308       3.36309144      -3.33823350
C        2.49906492       2.51353709      -2.50505891
C        1.69707677       1.50056292      -3.06426705
C        0.88235686       0.69909606      -2.26009139
C        0.88117581       0.88117581      -0.88117581
C        1.67533464       1.86735887      -0.30112447
C        2.46750878       2.68897910      -1.11068333
C        4.72862067       3.39007766      -3.16280276
C        5.49119234       4.23927404      -3.88494761
C        6.97319227       4.26156875      -3.75803824
O        7.66363770       4.90083245      -4.55054810
C        7.60446945       3.52026354      -2.60957189
C        6.90333481       2.18159857      -2.37031779
C        7.15629680       1.21934911      -3.54720142
C        7.48190592       1.54195628      -1.09502168
C        5.38708545       2.42258989      -2.17815911
C        4.89695535       5.23194831      -4.85726233
H        5.45658834       5.12856693      -5.80027364
C        5.03078014       6.67011026      -4.34137367
S        5.88816457       7.84773033      -5.25293677
C        5.59379111       9.06477829      -4.08603942
C        4.84926740       8.58217504      -3.04122820
C        4.51644623       7.21290253      -3.17350186
H        0.91024370       4.72242396      -5.21136709
H        0.79721931       3.82984267      -3.79787742
H        1.69489341       1.34306346      -4.14178428
H        0.25336308      -0.05778610      -2.72359339
H        1.68151435       2.01023609       0.77727978
H        3.05612101       3.47360403      -0.64443963
H        8.66605009       3.36308967      -2.83650078
H        7.54771513       4.17064816      -1.72726773
H        6.73628311       1.59252785      -4.48749451
H        6.70631834       0.23897623      -3.35462729
H        8.22961285       1.06415083      -3.70308100
H        7.34505010       2.19621769      -0.22435019
H        8.55686928       1.35549504      -1.19819031
H        6.99450650       0.58748115      -0.87219259
H        5.22935475       2.82797428      -1.17084132
H        4.88899284       1.44587663      -2.21825201
H        5.97818590      10.06403596      -4.23207257
H        3.93218184       6.64588896      -2.45846397
C        4.42768634       9.35974282      -1.90489297
C        4.07461219      10.01095583      -0.95321221
Br       3.50372117      11.06391219       0.58557508
N       -7.33670983      -2.51526495      -5.97356692
C       -6.39966289      -2.94144025      -5.45864782
C       -5.25502645      -3.46202865      -4.82965567
C       -4.47873985      -2.71278854      -4.00052175
N       -4.77541412      -1.36028260      -3.81937882
N       -3.34061064      -3.31049886      -3.36177851
C       -2.50572975      -2.49869533      -2.51323584
C       -3.05206507      -1.77052314      -1.43931854
C       -2.24849294      -0.95570357      -0.63734780
C       -0.88117581      -0.88117581      -0.88117581
C       -0.31312936      -1.60175916      -1.92892946
C       -1.12404208      -2.39342642      -2.74970272
C       -3.10291613      -4.71502676      -3.46355820
C       -3.82923925      -5.47178175      -4.31439299
C       -3.63681181      -6.94361698      -4.41237048
O       -4.42668604      -7.64119214      -5.04714008
C       -2.42730763      -7.55273014      -3.75426711
C       -2.15695183      -6.90216806      -2.39613129
C       -3.27445886      -7.25358339      -1.39480507
C       -0.82806820      -7.44811125      -1.84270442
C       -2.04497426      -5.36920955      -2.57365064
C       -4.87317141      -4.87997125      -5.23302333
H       -5.78404482      -5.48761793      -5.11376616
C       -4.42028399      -4.92427589      -6.69770419
S       -5.34685864      -5.76977611      -7.87219692
C       -4.25322046      -5.36601735      -9.12537102
C       -3.22142293      -4.59549541      -8.65575231
C       -3.30374388      -4.33139104      -7.26771571
H       -5.38226274      -0.94147973      -4.52029228
H       -3.93472515      -0.80218433      -3.68802992
H       -4.11994022      -1.82634764      -1.23345329
H       -2.70362117      -0.38408500       0.16853580
H        0.75650189      -1.55054008      -2.12043247
H       -0.66930982      -2.92336887      -3.58148598
H       -2.59844731      -8.62985278      -3.63734046
H       -1.58016980      -7.42508479      -4.44037644
H       -4.24931622      -6.86205250      -1.70493677
H       -3.05628048      -6.83968636      -0.40395502
H       -3.37426495      -8.33897107      -1.28360867
H        0.00366587      -7.24091008      -2.52837377
H       -0.87372479      -8.53406281      -1.70276703
H       -0.58261059      -6.99427593      -0.87729371
H       -1.06607076      -5.14594821      -3.01615138
H       -2.06130909      -4.91812672      -1.57368567
H       -4.42880731      -5.71142050     -10.13406663
H       -2.58980009      -3.74017114      -6.70656354
C       -2.14325894      -4.08606608      -9.46299711
C       -1.24029659      -3.65941902     -10.13906463
Br       0.21971715      -2.96956680     -11.23220863
N       -7.21926831       6.13146447       2.47480893
C       -6.34916045       5.52654724       2.92404326
C       -5.28629250       4.78761914       3.47279912
C       -4.45507692       4.03233605       2.70463718
N       -4.70096440       3.91947484       1.33463630
N       -3.36715116       3.32609536       3.31964149
C       -2.51428324       2.50173586       2.50164182
C       -1.87183933       3.02610615       1.36396127
C       -1.07238678       2.21859672       0.55056081
C       -0.88117581       0.88117581       0.88117581
C       -1.49449227       0.34061296       2.00871276
C       -2.31899690       1.14311218       2.80506213
C       -3.05475858       3.52830497       4.69843754
C       -3.88833032       4.23494633       5.49213733
C       -3.57092611       4.50095236       6.92092080
O       -4.24000576       5.29812762       7.57688488
C       -2.43993272       3.73729296       7.55707920
C       -1.25953362       3.60269038       6.59302718
C       -0.61041724       4.97655059       6.33587950
C       -0.20181135       2.68469302       7.23237951
C       -1.74812544       2.97275737       5.26695165
C       -5.20223736       4.79060137       4.99332725
H       -5.23791755       5.84802229       5.29948907
C       -6.39434050       4.04362853       5.60429504
S       -7.56781428       4.88617079       6.53484659
C       -8.46823198       3.45838051       6.81799634
C       -7.89150501       2.37692942       6.20423622
C       -6.70427998       2.69576952       5.50280112
H       -5.63572525       4.17951750       1.02879200
H       -4.44555366       3.00123220       0.97815354
H       -2.00755228       4.07351252       1.09867634
H       -0.61050907       2.64560749      -0.33694619
H       -1.34394173      -0.70356789       2.27409682
H       -2.81461117       0.69717539       3.66237811
H       -2.13306715       4.26303386       8.46953953
H       -2.83229612       2.75692008       7.85641483
H       -1.29615846       5.67539258       5.84475444
H        0.27168751       4.87833495       5.69327441
H       -0.28429136       5.43801037       7.27454296
H       -0.61737675       1.69339559       7.45484563
H        0.16799777       3.10334016       8.17521225
H        0.65614926       2.54277915       6.56755034
H       -1.89744007       1.89839358       5.43233670
H       -0.94063273       3.08041044       4.53207830
H       -9.36937903       3.49157635       7.41333905
H       -6.10184223       1.98469994       4.94999260
C       -8.41193652       1.03489763       6.24548797
C       -8.84779792      -0.08905399       6.28003631
Br      -9.55254894      -1.90638871       6.33589805
N        4.65494972      -8.01199654       3.15859544
C        4.51027458      -6.89478862       3.39468776
C        4.33354870      -5.53007907       3.68308300
C        3.51606938      -4.73225611       2.94372465
N        2.88470517      -5.25652345       1.81384692
N        3.35145424      -3.35353620       3.30789758
C        2.51064374      -2.50950068       2.49751651
C        1.17683598      -2.86469679       2.22037399
C        0.37145266      -2.06410275       1.40598890
C        0.88117581      -0.88117581       0.88117581
C        2.19327661      -0.49981288       1.15072850
C        3.00770947      -1.31791044       1.94155130
C        3.91115063      -2.84921199       4.52113847
C        4.76215048      -3.60527889       5.24798462
C        5.32796459      -3.12691026       6.53792441
O        5.94657117      -3.89186192       7.27658517
C        5.16461452      -1.67361589       6.89607447
C        3.77148990      -1.16890659       6.51485468
C        2.69452741      -1.83561611       7.39270380
C        3.71353819       0.35056689       6.75591258
C        3.51173446      -1.45875321       5.01734678
C        5.20969147      -4.97723145       4.79924307
H        5.07397299      -5.65349805       5.65795787
C        6.68528182      -4.97605927       4.38092298
S        7.81853943      -5.99345045       5.17684179
C        9.10894453      -5.43449212       4.20117218
C        8.67641421      -4.50936509       3.28689134
C        7.29022608      -4.23755525       3.37506929
H        3.27808376      -6.11969737       1.44625362
H        2.78634086      -4.56092699       1.07767154
H        0.76369413      -3.78456568       2.63148133
H       -0.64691507      -2.37823649       1.18784896
H        2.59480985       0.42692928       0.74659009
H        4.03783840      -1.02103755       2.11528871
H        5.33376744      -1.55819939       7.97367372
H        5.95390277      -1.11586325       6.37586501
H        2.65056063      -2.92016506       7.24557979
H        1.70063739      -1.43439134       7.16489312
H        2.88734005      -1.65372460       8.45578003
H        4.47564152       0.87638747       6.16636393
H        3.89187384       0.59135482       7.81003560
H        2.73766309       0.76078080       6.47729794
H        4.07589169      -0.72835982       4.42391884
H        2.44616300      -1.28115480       4.82580368
H       10.10882701      -5.81663332       4.34883411
H        6.75432603      -3.54107046       2.74113827
C        9.51782171      -3.85752659       2.31697383
C       10.22250049      -3.31161185       1.50466791
Br      11.36190647      -2.42891387       0.19123793
