90
Properties=species:S:1:pos:R:3 pbc="F F F"
C        1.79107914       1.79107914      -1.79107914
C        1.50566536       3.14600679      -1.92004009
C        2.30463001       3.95926217      -2.73648927
C        3.40766086       3.41743278      -3.42412582
I        4.55797019       4.60915841      -4.75186980
C        3.69508760       2.04895473      -3.25845466
C        2.87680247       1.23743009      -2.45635407
C        4.82999816       1.34495332      -3.89234298
O        4.64653659       0.35804949      -4.58994081
N        6.08010944       1.79342139      -3.58104083
H        0.65321801       3.56905650      -1.39216873
H        3.09989270       0.17570727      -2.35894597
H        6.25668476       2.61239961      -3.01656845
H        6.86774885       1.31945620      -4.00458243
C        1.91125542       5.34280949      -2.80470413
C        1.58180419       6.50153036      -2.86183407
Br       1.04910943       8.37508401      -2.95420835
C       -1.79107914      -1.79107914      -1.79107914
C       -1.20574465      -2.69556554      -2.67040205
C       -2.00913033      -3.50058296      -3.49066816
C       -3.41296994      -3.41039777      -3.42585175
I       -4.64035675      -4.53883726      -4.73980440
C       -3.98552466      -2.50745173      -2.50952060
C       -3.17334271      -1.68956970      -1.70767420
C       -5.43816550      -2.31976318      -2.30936578
O       -5.95117250      -1.21645467      -2.42689971
N       -6.14592381      -3.41086011      -1.89778773
H       -0.12128458      -2.76762530      -2.72553336
H       -3.63340934      -0.97939556      -1.02174103
H       -5.74708094      -4.33428583      -1.80428605
H       -7.14122025      -3.29744877      -1.75311847
C       -1.29730744      -4.39223132      -4.36923027
C       -0.70115577      -5.13898681      -5.10502604
Br       0.26277107      -6.34642729      -6.29474556
C       -1.79107914       1.79107914       1.79107914
C       -2.53566527       1.21911645       2.81693053
C       -3.35566811       2.02124896       3.62346439
C       -3.42596765       3.41166789       3.41158391
I       -4.74747657       4.62290911       4.54861272
C       -2.64336833       3.97415852       2.38497014
C       -1.84191672       3.16060257       1.56806733
C       -2.59186628       5.41541065       2.06001754
O       -2.84653745       5.81485545       0.93313400
N       -2.15695149       6.25078298       3.04683719
H       -2.48618321       0.14482041       2.98343961
H       -1.26178418       3.60979436       0.76296740
H       -1.95139888       5.94635189       3.98790205
H       -2.11293037       7.24027661       2.83858051
C       -4.08910908       1.32265629       4.64700365
C       -4.70336590       0.73758494       5.50421778
Br      -5.69656722      -0.20842597       6.89026053
C        1.79107914      -1.79107914       1.79107914
C        3.14005386      -1.48904407       1.94261431
C        3.95779772      -2.30054108       2.74204265
C        3.42197756      -3.42035044       3.40689146
I        4.66819355      -4.72280338       4.52800147
C        2.04812357      -3.69276691       3.26160651
C        1.24131182      -2.88764073       2.44163407
C        1.33885602      -4.81297376       3.91546468
O        0.70960721      -5.62812781       3.25679187
N        1.34553945      -4.82956945       5.27946276
H        3.55924908      -0.62583452       1.42935964
H        0.18558181      -3.12746361       2.32150051
H        1.86657765      -4.17426057       5.84481460
H        0.86129662      -5.58851245       5.74197842
C        5.33905652      -1.90077667       2.81893584
C        6.49586076      -1.56597398       2.88333388
Br       8.36631537      -1.02462635       2.98746007
C       -0.00445707       0.01189536      -1.78238275
H       -0.66409135       0.67374010      -2.43557963
H        0.65740317      -0.63156657      -2.45157240
C       -0.90989263      -0.90692880      -0.91072765
C        0.90977584       0.90977584      -0.90977584
C       -0.00465871       1.77757030       0.00794375
H       -0.66225468       2.44313916      -0.64384735
H        0.64322798       2.43503045       0.67728295
C       -1.78241447       0.00034974      -0.00472694
H       -2.45427497      -0.65498947       0.64260836
H       -2.43311707       0.67328779      -0.65473579
C       -0.91132561       0.90220522       0.91563759
C       -0.01476271      -0.02253852       1.78660255
H       -0.67934791      -0.69751639       2.42135241
H        0.63392994       0.61504881       2.47327442
C        0.01484550      -1.77751727      -0.01636693
H        0.67870853      -2.42144646      -0.68295456
H       -0.62264859      -2.45592969       0.64226336
C        1.78714474       0.01002794       0.00389507
H        2.44202412       0.67113390       0.66197326
H        2.45385902      -0.65136977      -0.64189061
C        0.91606151      -0.90478549       0.90901405
