81
Properties=species:S:1:pos:R:3 pbc="F F F"
C        0.00000000       0.00000000       0.00000000
N        1.39867516      -1.37330024      -4.96252706
C        2.43385072      -0.97454333      -4.62254130
C        3.70056596      -0.48502729      -4.19452079
C        3.83346361       0.43084680      -3.21323642
C        2.73936379       1.04230100      -2.44625575
C        1.90663169       0.27460081      -1.62215498
C        0.88573381       0.88573381      -0.88573381
C        0.69402750       2.26668081      -0.96027999
O       -0.30724051       2.85042817      -0.23098456
C        1.53157881       3.03338119      -1.77438887
C        2.55294512       2.42811828      -2.51178502
C        4.86800900      -0.97213471      -4.84898412
N        5.83490703      -1.35095745      -5.36610677
H        4.82472270       0.79680959      -2.94241762
H        2.04868895      -0.80157920      -1.54278567
H       -0.30190219       3.80673124      -0.41676286
H        3.19922971       3.03851685      -3.13977159
C        1.36376098       4.46054249      -1.86738238
C        1.22321356       5.65579008      -1.94526444
Br       0.99596025       7.58840435      -2.07119314
N       -5.32960917       0.22472719       0.11698000
C       -5.23148290      -0.93079034       0.08042455
C       -5.09992785      -2.34792508       0.03779347
C       -4.02268231      -2.96354372      -0.49132080
C       -2.84880257      -2.30184051      -1.07727746
C       -2.00946294      -1.48645903      -0.30746551
C       -0.88573381      -0.88573381      -0.88573381
C       -0.58762903      -1.10068325      -2.23267603
O        0.51750722      -0.50845218      -2.78322727
C       -1.41934894      -1.92248723      -2.99751270
C       -2.54280239      -2.52516935      -2.42487668
C       -6.16317789      -3.13988133       0.55820080
N       -7.01512348      -3.80869504       0.97376216
H       -3.98309843      -4.05302365      -0.52782782
H       -2.21985367      -1.31691698       0.74687523
H        0.55846320      -0.75532035      -3.72473476
H       -3.18017050      -3.16492209      -3.03242555
C       -1.13506369      -2.16917096      -4.38745120
C       -0.89697480      -2.37576858      -5.55152470
Br      -0.51200519      -2.70981946      -7.43373308
N        1.55433356       4.79633002       1.74590552
C        1.08062183       4.42474475       2.73772578
C        0.49875348       3.95818067       3.95063227
C       -0.47396788       3.02416206       3.97941689
C       -1.06294547       2.35190596       2.81306911
C       -0.29459233       1.53142848       1.97736668
C       -0.88573381       0.88573381       0.88573381
C       -2.24783494       1.04772917       0.62542420
O       -2.81239559       0.40655949      -0.44478286
C       -3.01599246       1.85793253       1.46542388
C       -2.43067801       2.50490376       2.55726665
C        0.95366339       4.52133704       5.17718477
N        1.30456953       4.96429291       6.19033297
H       -0.90884495       2.72202975       4.93307520
H        0.76618269       1.38436307       2.17171504
H       -3.75627007       0.64515913      -0.47983730
H       -3.04215591       3.13093138       3.20443085
C       -4.42453018       2.03964424       1.22751143
C       -5.60418053       2.19182779       1.02825976
Br      -7.51157537       2.43789572       0.70608665
N        2.15862442       1.73233242       4.56160998
C        3.09144341       1.17059629       4.16100157
C        4.23121907       0.48032818       3.65916856
C        4.13588850      -0.54898991       2.79266841
C        2.89224753      -1.09940905       2.23626396
C        2.05332865      -0.32981144       1.42024740
C        0.88573381      -0.88573381       0.88573381
C        0.55167394      -2.21435991       1.15495446
O       -0.59260883      -2.74496926       0.62181180
C        1.39419375      -2.98469823       1.96045690
C        2.56171658      -2.43451188       2.49661997
C        5.51903869       0.88633603       4.11215575
N        6.57973675       1.19555541       4.46587500
H        5.03781916      -1.06512011       2.46101064
H        2.30374285       0.70414068       1.19029325
H       -0.67089641      -3.66745940       0.92502891
H        3.20970687      -3.04747187       3.12033940
C        1.08083766      -4.35982756       2.25102063
C        0.81840195      -5.51149838       2.49436775
Br       0.39406559      -7.37365268       2.88783947
