102
Properties=species:S:1:pos:R:3 pbc="F F F"
N        2.30857919      -0.46339621      -5.87243108
C        3.34375475      -0.06463930      -5.53244532
C        4.61046998       0.42487673      -5.10442482
C        4.74336763       1.34075083      -4.12314044
C        3.64926781       1.95220502      -3.35615977
C        2.81653571       1.18450484      -2.53205901
C        1.79563784       1.79563784      -1.79563784
C        1.60393153       3.17658484      -1.87018402
O        0.60266351       3.76033219      -1.14088859
C        2.44148283       3.94328521      -2.68429290
C        3.46284914       3.33802230      -3.42168905
C        5.77791303      -0.06223069      -5.75888815
N        6.74481105      -0.44105343      -6.27601080
H        5.73462672       1.70671361      -3.85232164
H        2.95859298       0.10832483      -2.45268969
H        0.60800183       4.71663527      -1.32666688
H        4.10913373       3.94842087      -4.04967561
C        2.27366501       5.37044652      -2.77728640
C        2.13311758       6.56569411      -2.85516846
Br       1.90586428       8.49830837      -2.98109716
N       -1.19675326      -6.20463569      -0.31622510
C       -1.14759537      -6.18864001      -1.47532539
C       -1.08430166      -6.15801544      -2.89745444
C       -1.49060222      -5.09504048      -3.62161620
C       -2.03307908      -3.83906391      -3.08548961
C       -1.26129677      -2.99675184      -2.27505094
C       -1.79563784      -1.79563784      -1.79563784
C       -3.09961046      -1.42328723      -2.12780269
O       -3.60714939      -0.24317247      -1.65356243
C       -3.86545177      -2.25882248      -2.94478669
C       -3.33656220      -3.45942256      -3.42657573
C       -0.59015864      -7.30894726      -3.57546458
N       -0.19331169      -8.23354590      -4.15291083
H       -1.45013797      -5.13249228      -4.71103172
H       -0.23900727      -3.26527994      -2.01532028
H       -4.52425511      -0.15652203      -1.97052684
H       -3.94409731      -4.09898716      -4.06414574
C       -5.21106055      -1.89961633      -3.31072104
C       -6.33800791      -1.59878119      -3.61719105
Br      -8.16018647      -1.11235620      -4.11272714
N       -5.67372402       2.71750293      -0.67361289
C       -5.29720890       3.70102118      -0.18666931
C       -4.82464221       4.90363168       0.41149764
C       -3.89993067       4.91388888       1.39343935
C       -3.24476611       3.73539272       1.97747377
C       -2.42494476       2.89918773       1.20896707
C       -1.79563784       1.79563784       1.79563784
C       -1.97343380       1.52376412       3.15350246
O       -1.34818473       0.44193921       3.71376035
C       -2.78293854       2.36416753       3.92195487
C       -3.41357677       3.46788343       3.34110029
C       -5.37144418       6.13996536      -0.03683905
N       -5.80113589       7.16073568      -0.38210314
H       -3.59285179       5.86030239       1.84050780
H       -2.26565714       3.10233864       0.15161172
H       -1.59631636       0.40009121       4.65489641
H       -4.03925797       4.11518632       3.95278593
C       -2.98068581       2.11443236       5.32627975
C       -3.14629916       1.90527916       6.50240183
Br      -3.41408192       1.56709612       8.40409177
N       -0.74791567      -2.88410885       5.58142088
C        0.31652339      -2.57273389       5.92230348
C        1.62410072      -2.18466409       6.33100672
C        2.65617819      -2.08250405       5.46857666
C        2.60286774      -2.33309880       4.02166607
C        1.81110071      -1.54904942       3.17294942
C        1.79563784      -1.79563784       1.79563784
C        2.57541045      -2.81999490       1.25529503
O        2.55204895      -3.04679458      -0.09495923
C        3.37300995      -3.59504306       2.10100794
C        3.39241400      -3.35282491       3.47732159
C        1.84708179      -1.91573090       7.71175779
N        2.05665290      -1.69241819       8.83069733
H        3.64651090      -1.81077954       5.83637154
H        1.20567155      -0.73886575       3.57507020
H        3.13835004      -3.80057773      -0.28762379
H        4.02060410      -3.96312056       4.12350556
C        4.19353556      -4.65433580       1.57352656
C        4.88072576      -5.54149348       1.13176091
Br       5.99185419      -6.97595240       0.41746322
C       -0.00445707       0.01189536      -1.78238275
H       -0.66409135       0.67374010      -2.43557963
H        0.65740317      -0.63156657      -2.45157240
C       -0.90989263      -0.90692880      -0.91072765
C        0.90977584       0.90977584      -0.90977584
C       -0.00465871       1.77757030       0.00794375
H       -0.66225468       2.44313916      -0.64384735
H        0.64322798       2.43503045       0.67728295
C       -1.78241447       0.00034974      -0.00472694
H       -2.45427497      -0.65498947       0.64260836
H       -2.43311707       0.67328779      -0.65473579
C       -0.91132561       0.90220522       0.91563759
C       -0.01476271      -0.02253852       1.78660255
H       -0.67934791      -0.69751639       2.42135241
H        0.63392994       0.61504881       2.47327442
C        0.01484550      -1.77751727      -0.01636693
H        0.67870853      -2.42144646      -0.68295456
H       -0.62264859      -2.45592969       0.64226336
C        1.78714474       0.01002794       0.00389507
H        2.44202412       0.67113390       0.66197326
H        2.45385902      -0.65136977      -0.64189061
C        0.91606151      -0.90478549       0.90901405
