133
Properties=species:S:1:pos:R:3 pbc="F F F"
C        0.00000000       0.00000000       0.00000000
O        6.72412211       1.38439728       0.37828451
C        7.15089570       0.85563952      -0.64478526
C        6.30517664      -0.08736793      -1.50594599
O        4.90260082       0.14568735      -1.38241071
C        4.47861696       1.28017795      -1.99120654
O        5.17083429       2.03430325      -2.65647460
C        3.02469150       1.46189099      -1.79496722
C        2.38907979       2.49195799      -2.48019041
N        1.05640141       2.74014906      -2.40853249
C        0.33047355       1.92393272      -1.60807279
C        0.87909809       0.87909809      -0.87909809
C        2.24797724       0.64242608      -0.97014818
N        8.43308833       1.04721842      -1.11400043
C        9.31300425       1.99913582      -0.47150174
C       10.60762137       2.14848934      -1.23022414
C       10.55916172       2.76200289      -2.49934820
C       11.71265633       2.93357319      -3.26566380
C       12.94007516       2.50174716      -2.77622047
C       13.01162754       1.89416573      -1.52329003
C       11.85434814       1.71308322      -0.75410801
Br      12.07337701       0.85965945       0.92834494
H        6.49903867      -1.10824451      -1.15986369
H        6.60682420      -0.03606731      -2.55914435
H        2.94157625       3.16580066      -3.13196651
H       -0.73277796       2.14504152      -1.57396246
H        2.69984790      -0.16869061      -0.40626257
H        8.68741539       0.70047208      -2.02977064
H        9.44694391       1.68721549       0.56735584
H        8.80267011       2.96987960      -0.43158199
H        9.60814896       3.11670134      -2.89608931
H       11.65169091       3.40922950      -4.24147414
H       13.84233108       2.63932455      -3.36687519
H       13.97949776       1.56414438      -1.15198404
O       -3.76772248       1.57029193      -5.53280432
C       -3.18462288       0.95439863      -6.42109623
C       -1.81218205       0.30560981      -6.21718247
O       -1.54605382      -0.02906562      -4.85557945
C       -2.25278580      -1.09376114      -4.40345451
O       -3.00742309      -1.78419665      -5.06999240
C       -1.94081349      -1.35795234      -2.98278389
C       -2.45781490      -2.50790410      -2.39550919
N       -2.21714844      -2.87654062      -1.11139390
C       -1.42949890      -2.05119502      -0.38178515
C       -0.87909809      -0.87909809      -0.87909809
C       -1.13817454      -0.52268058      -2.19969638
N       -3.69878359       0.79485057      -7.69037416
C       -5.03525863       1.25326661      -8.00164979
C       -5.44151714       0.85272653      -9.39754423
C       -5.64701296      -0.51879127      -9.65470859
C       -6.02023397      -0.97050397     -10.92115539
C       -6.20278554      -0.05977472     -11.95548253
C       -6.00678014       1.30103386     -11.72333702
C       -5.62440508       1.75777783     -10.45491212
Br      -5.37197562       3.63032071     -10.26303661
H       -1.05646656       1.03455762      -6.52874891
H       -1.69594515      -0.57909936      -6.85485672
H       -3.09349342      -3.19321885      -2.95263114
H       -1.25224618      -2.37431552       0.64033568
H       -0.71975359       0.39210281      -2.60976907
H       -3.24411764       0.16494324      -8.33848371
H       -5.07163427       2.33146158      -7.82663087
H       -5.73109287       0.80686454      -7.27990336
H       -5.51908793      -1.24739776      -8.85445392
H       -6.17319744      -2.03256950     -11.09662760
H       -6.49999605      -0.40647777     -12.94205701
H       -6.15636156       2.00227031     -12.54153493
O       -0.89182588       0.02095489       6.81745412
C       -0.41144910       1.10612200       7.13374937
C        0.40627188       1.96536618       6.16466041
O        0.08788512       1.72402549       4.79455851
C       -1.11431763       2.22150362       4.41418020
O       -1.86616267       2.88268998       5.11275950
C       -1.37980078       1.90756527       2.99418367
C       -2.49810470       2.47272730       2.39039619
N       -2.83058378       2.28708402       1.08741517
C       -2.00936989       1.49314695       0.35996221
C       -0.87909809       0.87909809       0.87909809
C       -0.55703262       1.08589876       2.21762011
N       -0.54904519       1.65368848       8.39157350
C       -1.38928997       1.01390541       9.38044643
C       -1.50519327       1.85331455      10.62782703
C       -2.21172956       3.07075672      10.53802653
C       -2.35990557       3.90588961      11.64609815
C       -1.81085465       3.53805133      12.86913681
C       -1.10983193       2.33800613      12.98124524
C       -0.95223953       1.50039233      11.86890751
Br       0.03484460      -0.09949832      12.13903443
H        1.46054705       1.70472288       6.30648203
H        0.29876819       3.03185431       6.39681512
H       -3.17859892       3.11574155       2.94500296
H       -2.29929674       1.36640722      -0.67947794
H        0.32203044       0.61311984       2.64633046
H       -0.25366903       2.60708764       8.55690144
H       -0.99385139       0.01128547       9.56166670
H       -2.38701559       0.87075412       8.94636198
H       -2.65843476       3.37181955       9.59068530
H       -2.90868056       4.83996125      11.55375273
H       -1.92947635       4.18234832      13.73670615
H       -0.68839185       2.06180289      13.94543144
O       -0.65446117      -6.61036268       1.77433337
C        0.31369775      -7.12065771       1.21696502
C        1.16442801      -6.37502141       0.18430529
O        1.12812519      -4.95741658       0.34515711
C        1.82058512      -4.50876933       1.42064700
O        2.48937646      -5.19622539       2.17601029
C        1.71164146      -3.03862649       1.53128177
C        2.48564583      -2.38872760       2.48685477
N        2.49822687      -1.04290321       2.66395289
C        1.69296340      -0.31758646       1.85192920
C        0.87909809      -0.87909809       0.87909809
C        0.88458555      -2.26148869       0.71447726
N        0.72463045      -8.41508932       1.45458740
C        0.09061316      -9.20651699       2.48651165
C        0.78719821     -10.53166725       2.66746938
C        2.08927526     -10.52162645       3.20961110
C        2.80210313     -11.70532087       3.40446932
C        2.22540085     -12.92465624       3.06798571
C        0.93858303     -12.95831019       2.53219009
C        0.22256742     -11.77118384       2.32778810
Br      -1.51395750     -11.94093951       1.57770951
H        0.75235527      -6.60285204      -0.80454945
H        2.20148963      -6.73167014       0.19674146
H        3.14388073      -2.94035321       3.15510947
H        1.72727846       0.75608732       2.01503488
H        0.25342421      -2.72340007      -0.03940442
H        1.60501736      -8.73788508       1.07475567
H       -0.96960034      -9.29870515       2.23769875
H        0.13170516      -8.64431232       3.42811421
H        2.55469284      -9.57679133       3.48945543
H        3.80471851     -11.67375747       3.82391856
H        2.77443136     -13.84986945       3.22423001
H        0.49901037     -13.92006792       2.27654789
