162
Properties=species:S:1:pos:R:3 pbc="F F F"
O        7.63402613       2.29430130      -0.53161952
C        8.06079973       1.76554354      -1.55468928
C        7.21508067       0.82253610      -2.41585001
O        5.81250485       1.05559137      -2.29231473
C        5.38852098       2.19008197      -2.90111056
O        6.08073831       2.94420727      -3.56637862
C        3.93459553       2.37179502      -2.70487125
C        3.29898381       3.40186202      -3.39009443
N        1.96630544       3.65005308      -3.31843652
C        1.24037757       2.83383674      -2.51797682
C        1.78900211       1.78900211      -1.78900211
C        3.15788127       1.55233010      -1.88005220
N        9.34299235       1.95712244      -2.02390446
C       10.22290827       2.90903985      -1.38140576
C       11.51752539       3.05839337      -2.14012816
C       11.46906575       3.67190692      -3.40925222
C       12.62256035       3.84347721      -4.17556783
C       13.84997918       3.41165119      -3.68612449
C       13.92153157       2.80406976      -2.43319405
C       12.76425216       2.62298724      -1.66401203
H        7.40894270      -0.19834049      -2.06976772
H        7.51672822       0.87383671      -3.46904837
H        3.85148027       4.07570468      -4.04187053
H        0.17712607       3.05494554      -2.48386649
H        3.60975192       0.74121342      -1.31616659
H        9.59731942       1.61037610      -2.93967466
H       10.35684794       2.59711951      -0.34254818
H        9.71257413       3.87978363      -1.34148601
H       10.51805298       4.02660536      -3.80599333
H       12.56159493       4.31913352      -5.15137816
H       14.75223510       3.54922858      -4.27677921
H       14.88940178       2.47404840      -2.06188806
C       12.93032307       1.97590878      -0.38835145
C       13.06940746       1.43398057       0.68001428
Br      13.29429516       0.55772849       2.40747132
O       -1.08794394      -1.62626700      -7.74573601
C       -0.70607507      -2.78455939      -7.89039809
C       -0.09783481      -3.60600850      -6.74962347
O       -0.52624038      -3.17629326      -5.45787731
C       -1.81074520      -3.49939258      -5.16957574
O       -2.55762367      -4.15552011      -5.87818043
C       -2.18365964      -2.99766585      -3.82993630
C       -3.41622043      -3.37048992      -3.30422991
N       -3.85803997      -3.00209731      -2.07465775
C       -3.03027708      -2.21866664      -1.34324741
C       -1.78900211      -1.78900211      -1.78900211
C       -1.35623795      -2.18132620      -3.05269942
N       -0.77514264      -3.45663549      -9.09224112
C       -1.42895160      -2.85194680     -10.23245547
C       -1.51139987      -3.81337023     -11.39127682
C       -2.35938321      -4.93258951     -11.25825217
C       -2.48763377      -5.87034824     -12.28362338
C       -1.77616616      -5.70512894     -13.46645976
C       -0.93333210      -4.60510382     -13.62035945
C       -0.79593382      -3.66537547     -12.58994215
H        0.98847673      -3.47399910      -6.79484755
H       -0.30327713      -4.67529447      -6.88104171
H       -4.10540859      -3.99940819      -3.86423871
H       -3.40959844      -1.94332672      -0.36301294
H       -0.38881473      -1.85477743      -3.42353977
H       -0.57642635      -4.44816441      -9.12277942
H       -0.90366915      -1.92332552     -10.46952096
H       -2.44296967      -2.55712217      -9.93375193
H       -2.93349953      -5.07429582     -10.34285632
H       -3.14727783      -6.72565698     -12.15917181
H       -1.87804908      -6.42962345     -14.27057036
H       -0.38530528      -4.48728883     -14.55274415
C        0.10482213      -2.56811157     -12.83129387
C        0.85920524      -1.64915306     -13.03342594
Br       2.07897892      -0.16327486     -13.36025639
O       -7.69554502       2.00766904       0.75673290
C       -8.05874183       1.50531313       1.81697760
C       -7.14079530       0.63348866       2.67918282
O       -5.75518606       0.91704015       2.48818474
C       -5.35479502       2.09190882       3.03300968
O       -6.05066472       2.84480974       3.69584976
C       -3.91868944       2.32322954       2.76934281
C       -3.29962513       3.40548174       3.38583340
N       -1.98235457       3.70351039       3.24893007
C       -1.25564701       2.88434319       2.45220093
C       -1.78900211       1.78900211       1.78900211
C       -3.14211787       1.50183422       1.94631148
N       -9.32802894       1.66488074       2.33110957
C      -10.27175191       2.55333262       1.68826934
C      -11.54012185       2.68229489       2.49363018
C      -11.46657661       3.34952931       3.73411897
C      -12.59468008       3.50662429       4.54030102
C      -13.82163809       3.00612418       4.11999259
C      -13.91783761       2.34456339       2.89639438
C      -12.78567435       2.17800394       2.08757316
H       -7.30568114      -0.40783202       2.38252081
H       -7.40200638       0.71647708       3.74112984
H       -3.85320503       4.08325329       4.03259718
H       -0.20472814       3.14613501       2.36507494
H       -3.58201055       0.65055586       1.43456552
H       -9.53092552       1.34665684       3.26978783
H      -10.43398602       2.19335600       0.66917361
H       -9.80425328       3.54118405       1.58840643
H      -10.51605822       3.75813229       4.07646116
H      -12.51462992       4.02452611       5.49295058
H      -14.70452331       3.13200929       4.74171030
H      -14.88519619       1.96098139       2.57916067
C      -12.97549956       1.47229065       0.84679310
C      -13.13447818       0.88125578      -0.19236020
Br     -13.39153315      -0.07439763      -1.87258319
O        0.63908416      -7.66648757       2.15437523
C        1.68065222      -8.06246458       1.63791575
C        2.54305082      -7.18133864       0.72907731
O        2.38694922      -5.78639481       0.98706692
C        2.96478787      -5.37332777       2.14159788
O        3.62885287      -6.06731133       2.89516002
C        2.73599046      -3.92745308       2.34781825
C        3.38804189      -3.29925485       3.40364353
N        3.28489826      -1.97346670       3.67643007
C        2.48623780      -1.24719454       2.85875880
C        1.78900211      -1.78900211       1.78900211
C        1.91202836      -3.15082701       1.52740819
N        2.17156648      -9.33878676       1.81366600
C        1.52825330     -10.24998768       2.73511289
C        2.30963748     -11.53220968       2.87419976
C        3.56526759     -11.47115711       3.51380018
C        4.35098457     -12.61260733       3.67801349
C        3.89474217     -13.84050500       3.21250768
C        2.65564480     -13.92444242       2.57870816
C        1.86717333     -12.77907487       2.40500324
H        2.22099388      -7.36149571      -0.30211966
H        3.60086223      -7.46324693       0.79550414
H        4.03740020      -3.85223148       4.07942381
H        2.42654542      -0.18944999       3.09994269
H        1.37330056      -3.59735569       0.69647568
H        3.09886068      -9.56812788       1.48038163
H        0.49859623     -10.39800331       2.39991610
H        1.45911418      -9.76004729       3.71468229
H        3.93588315     -10.51983219       3.89493634
H        5.31586845     -12.54204738       4.17419078
H        4.50050977     -14.73357897       3.34415416
H        2.31030771     -14.89261300       2.22241755
C        0.60801902     -12.95714956       1.72941473
C       -0.44652271     -13.10628711       1.16360935
Br      -2.15162750     -13.34742992       0.24874990
C       -0.00445707       0.01189536      -1.78238275
H       -0.66409135       0.67374010      -2.43557963
H        0.65740317      -0.63156657      -2.45157240
C       -0.90989263      -0.90692880      -0.91072765
C        0.90977584       0.90977584      -0.90977584
C       -0.00465871       1.77757030       0.00794375
H       -0.66225468       2.44313916      -0.64384735
H        0.64322798       2.43503045       0.67728295
C       -1.78241447       0.00034974      -0.00472694
H       -2.45427497      -0.65498947       0.64260836
H       -2.43311707       0.67328779      -0.65473579
C       -0.91132561       0.90220522       0.91563759
C       -0.01476271      -0.02253852       1.78660255
H       -0.67934791      -0.69751639       2.42135241
H        0.63392994       0.61504881       2.47327442
C        0.01484550      -1.77751727      -0.01636693
H        0.67870853      -2.42144646      -0.68295456
H       -0.62264859      -2.45592969       0.64226336
C        1.78714474       0.01002794       0.00389507
H        2.44202412       0.67113390       0.66197326
H        2.45385902      -0.65136977      -0.64189061
C        0.91606151      -0.90478549       0.90901405
