154
Properties=species:S:1:pos:R:3 pbc="F F F"
O        7.63402613       2.29430130      -0.53161952
C        8.06079973       1.76554354      -1.55468928
C        7.21508067       0.82253610      -2.41585001
O        5.81250485       1.05559137      -2.29231473
C        5.38852098       2.19008197      -2.90111056
O        6.08073831       2.94420727      -3.56637862
C        3.93459553       2.37179502      -2.70487125
C        3.29898381       3.40186202      -3.39009443
N        1.96630544       3.65005308      -3.31843652
C        1.24037757       2.83383674      -2.51797682
C        1.78900211       1.78900211      -1.78900211
C        3.15788127       1.55233010      -1.88005220
N        9.34299235       1.95712244      -2.02390446
C       10.22290827       2.90903985      -1.38140576
C       11.51752539       3.05839337      -2.14012816
C       11.46906575       3.67190692      -3.40925222
C       12.62256035       3.84347721      -4.17556783
C       13.84997918       3.41165119      -3.68612449
C       13.92153157       2.80406976      -2.43319405
C       12.76425216       2.62298724      -1.66401203
Br      12.98328103       1.76956347       0.01844091
H        7.40894270      -0.19834049      -2.06976772
H        7.51672822       0.87383671      -3.46904837
H        3.85148027       4.07570468      -4.04187053
H        0.17712607       3.05494554      -2.48386649
H        3.60975192       0.74121342      -1.31616659
H        9.59731942       1.61037610      -2.93967466
H       10.35684794       2.59711951      -0.34254818
H        9.71257413       3.87978363      -1.34148601
H       10.51805298       4.02660536      -3.80599333
H       12.56159493       4.31913352      -5.15137816
H       14.75223510       3.54922858      -4.27677921
H       14.88940178       2.47404840      -2.06188806
O       -2.28442921      -0.53905272      -7.63646503
C       -1.75650299      -1.56344903      -8.06108054
C       -0.81587072      -2.42474164      -7.21285442
O       -1.05070251      -2.29893120      -5.81077724
C       -2.18662713      -2.90555956      -5.38752684
O       -2.94071481      -3.57074165      -6.07986775
C       -2.37008698      -2.70704511      -3.93412970
C       -3.40198859      -3.38995131      -3.29900036
N       -3.65193120      -3.31609436      -1.96676947
C       -2.83561134      -2.51576026      -1.24081953
C       -1.78900211      -1.78900211      -1.78900211
C       -1.55055521      -1.88228556      -3.15742280
N       -1.94695281      -2.03418116      -9.34288528
C       -2.89675175      -1.39158537     -10.22501676
C       -3.04536184      -2.15190013     -11.51878495
C       -3.66070741      -3.42010185     -11.46941563
C       -3.83174088      -4.18778257     -12.62208194
C       -3.39752919      -3.70064805     -13.84957763
C       -2.78810617      -2.44866381     -13.92202540
C       -2.60756177      -1.67812463     -12.76556504
Br      -1.75149431       0.00283448     -12.98574376
H        0.20575481      -2.08034825      -7.40577649
H       -0.86821754      -3.47828640      -7.51310937
H       -4.07596916      -4.04155861      -3.85152772
H       -3.05814962      -2.47986334      -0.17792514
H       -0.73802762      -1.32015682      -3.60894749
H       -1.60112797      -2.95078528      -9.59545694
H       -2.58320043      -0.35334957     -10.35996563
H       -3.86814721      -1.34960677      -9.71608978
H       -4.01727863      -3.81502608     -10.51834697
H       -4.30883874      -5.16284527     -12.56042260
H       -3.53467449      -4.29236588     -14.75120252
H       -2.45622397      -2.07916381     -14.88995047
O       -1.33453511       7.75701634       1.36839550
C       -2.46676511       7.97094098       0.94332646
C       -3.30860768       6.89650050       0.24835860
O       -2.95570221       5.56901321       0.63569552
C       -3.34938497       5.23996092       1.89036762
O       -4.00736464       5.94449893       2.63946064
C       -2.92416932       3.86381096       2.22328151
C       -3.37547037       3.30236580       3.41310409
N       -3.08166316       2.03914234       3.81398953
C       -2.29393754       1.30956350       2.98869009
C       -1.78900211       1.78900211       1.78900211
C       -2.10561663       3.08697980       1.39766714
N       -3.08818379       9.19805135       1.03778411
C       -2.46477359      10.27983922       1.76874107
C       -3.37745081      11.47663945       1.86195666
C       -4.53895592      11.35795688       2.65331210
C       -5.43593273      12.41849353       2.78717914
C       -5.18692358      13.62248510       2.13834618
C       -4.04389805      13.76265251       1.35224482
C       -3.14475822      12.69738929       1.20910393
Br      -1.63234753      13.00086471       0.10119135
H       -3.12529342       6.98303226      -0.82795576
H       -4.37940013       7.06750424       0.41270893
H       -4.01014854       3.85988103       4.09902591
H       -2.07925866       0.30215645       3.33452299
H       -1.71936389       3.48440584       0.46336220
H       -4.06732721       9.28247093       0.79757204
H       -1.50367626      10.49696833       1.29587105
H       -2.22987183       9.92400375       2.77996819
H       -4.74655288      10.42579457       3.17830422
H       -6.32508169      12.30454067       3.40248426
H       -5.87951779      14.45361783       2.24510727
H       -3.86059410      14.71172148       0.85302267
O       -0.78375319      -5.61387175       5.62982839
C       -0.38144469      -6.65171236       5.11076488
C        0.07676408      -6.72562389       3.65107881
O        0.54117702      -5.47489016       3.14434377
C        1.74855886      -5.09874546       3.63240920
O        2.45163399      -5.75745811       4.38223212
C        2.14467891      -3.78553722       3.08104566
C        3.42487494      -3.31408740       3.35197793
N        3.91636150      -2.14108601       2.87734753
C        3.08425706      -1.40473064       2.10320343
C        1.78900211      -1.78900211       1.78900211
C        1.30752122      -2.99721103       2.28553132
N       -0.31249246      -7.85342402       5.78308769
C       -0.60328131      -7.91774083       7.19889436
C       -0.33047296      -9.29338245       7.75313743
C        1.01151008      -9.72302378       7.81569103
C        1.34629462     -10.98363733       8.31167345
C        0.34696468     -11.83859832       8.76219187
C       -0.98633904     -11.43385275       8.71128167
C       -1.32716269     -10.17173382       8.20668031
Br      -3.17576548      -9.73761790       8.17255117
H       -0.79058288      -7.02024878       3.05070402
H        0.84445724      -7.49744622       3.51770985
H        4.11936471      -3.88013473       3.96955605
H        3.50671000      -0.47362308       1.73560501
H        0.29544206      -3.31718824       2.05450162
H        0.15369209      -8.64128482       5.35239328
H       -1.63231640      -7.58103174       7.34780029
H        0.03113782      -7.18667384       7.71603210
H        1.81017748      -9.06339175       7.47708245
H        2.38762930     -11.29393162       8.35054569
H        0.60364352     -12.81902158       9.15557780
H       -1.75726874     -12.11235092       9.07025607
C       -0.00445707       0.01189536      -1.78238275
H       -0.66409135       0.67374010      -2.43557963
H        0.65740317      -0.63156657      -2.45157240
C       -0.90989263      -0.90692880      -0.91072765
C        0.90977584       0.90977584      -0.90977584
C       -0.00465871       1.77757030       0.00794375
H       -0.66225468       2.44313916      -0.64384735
H        0.64322798       2.43503045       0.67728295
C       -1.78241447       0.00034974      -0.00472694
H       -2.45427497      -0.65498947       0.64260836
H       -2.43311707       0.67328779      -0.65473579
C       -0.91132561       0.90220522       0.91563759
C       -0.01476271      -0.02253852       1.78660255
H       -0.67934791      -0.69751639       2.42135241
H        0.63392994       0.61504881       2.47327442
C        0.01484550      -1.77751727      -0.01636693
H        0.67870853      -2.42144646      -0.68295456
H       -0.62264859      -2.45592969       0.64226336
C        1.78714474       0.01002794       0.00389507
H        2.44202412       0.67113390       0.66197326
H        2.45385902      -0.65136977      -0.64189061
C        0.91606151      -0.90478549       0.90901405
