162
Properties=species:S:1:pos:R:3 pbc="F F F"
O        2.57600342       5.93267600      -5.78960279
C        3.12603383       4.96717644      -6.31154859
N        3.99431222       4.13000216      -5.64695095
C        4.29309895       4.29356629      -4.24485494
C        3.42005596       3.41573674      -3.38691100
C        3.81559813       2.10846902      -3.06719418
C        3.00534981       1.29953083      -2.26740000
C        1.79179701       1.79179701      -1.79179701
C        1.37624746       3.08166236      -2.11506940
C        2.18689065       3.88907692      -2.91559002
C        2.92061874       4.60811575      -7.78623587
O        1.86566798       3.67988966      -8.03135909
C        2.13885700       2.39581501      -7.70408645
O        3.17278129       1.99032498      -7.19960182
C        0.98968060       1.53018749      -8.03370008
C        0.90971893       0.27622935      -7.44015970
N       -0.09102074      -0.60764727      -7.67933789
C       -1.04871440      -0.21935434      -8.55577573
C       -1.04493088       1.00823697      -9.20133442
C       -0.01065561       1.90128869      -8.93799331
H        4.14848710       3.20906965      -6.05644999
H        4.18659405       5.34437617      -3.95143022
H        5.34670473       4.02734040      -4.10352644
H        4.76070147       1.71441095      -3.43486877
H        3.32979119       0.29203957      -2.02064286
H        0.42833469       3.46854091      -1.75129395
H        1.85459827       4.89451595      -3.17174712
H        3.86055412       4.24797521      -8.22277333
H        2.67381307       5.53317211      -8.31834164
H        1.66148458      -0.06710835      -6.73258894
H       -1.83583577      -0.94952428      -8.72580281
H        0.01904680       2.86536024      -9.43653874
C       -2.08683922       1.35268801     -10.13374018
C       -2.95943745       1.64116575     -10.91463000
Br      -4.37035500       2.10760987     -12.17726279
O       -6.24328538      -5.42961099      -2.62538585
C       -5.29078321      -6.09905005      -3.01492559
N       -4.30655229      -5.61630050      -3.84841255
C       -4.28836561      -4.24531958      -4.29783500
C       -3.41221278      -3.38768091      -3.42281001
C       -2.04591557      -3.24091173      -3.70443403
C       -1.23808941      -2.44087978      -2.89331145
C       -1.79179701      -1.79179701      -1.79179701
C       -3.14320197      -1.94161964      -1.48815760
C       -3.94956049      -2.74256087      -2.29943624
C       -5.11428923      -7.57089835      -2.62978278
O       -4.32473780      -7.78996915      -1.46220979
C       -2.99245831      -7.62029429      -1.62600586
O       -2.43650323      -7.27187717      -2.65432769
C       -2.28309474      -7.90673452      -0.36373890
C       -0.98623697      -7.43264845      -0.20722256
N       -0.23466061      -7.64736799       0.90135873
C       -0.80625481      -8.37368618       1.89223400
C       -2.09002557      -8.89359734       1.81898239
C       -2.84482059      -8.65769088       0.67388508
H       -3.42448341      -6.12752045      -3.86200289
H       -5.30680972      -3.84146637      -4.33412435
H       -3.90740171      -4.24481290      -5.32535695
H       -1.60382750      -3.74475734      -4.56139635
H       -0.18316270      -2.32952570      -3.12978521
H       -3.57887922      -1.44202670      -0.62726363
H       -5.00423155      -2.86256932      -2.05406048
H       -4.71367839      -8.13902800      -3.47859627
H       -6.11084340      -7.98095205      -2.43353137
H       -0.49731008      -6.84686793      -0.98278716
H       -0.17856503      -8.52806296       2.76618523
H       -3.84950718      -9.06052883       0.58909023
C       -2.63244833      -9.67048022       2.90333959
C       -3.08672740     -10.32111964       3.81148874
Br      -3.82125822     -11.37314854       5.27988911
O       -2.80551458       6.59466816       4.89809948
C       -2.95505067       5.71178422       5.73792397
N       -3.68587904       4.56504768       5.52033861
C       -4.30329015       4.28060299       4.24762705
C       -3.42581340       3.40710661       3.38978370
C       -3.51402221       2.00934438       3.46789474
C       -2.70194396       1.20313130       2.66720538
C       -1.79179701       1.79179701       1.79179701
C       -1.67936300       3.17831976       1.71529645
C       -2.49125254       3.98321223       2.51709282
C       -2.35789366       5.81234287       7.14473382
O       -1.06566686       5.22516355       7.28608632
C       -1.04659542       3.87271734       7.31944570
O       -2.01555608       3.14035721       7.20679480
C        0.33509651       3.38672701       7.50193768
C        0.62268220       2.06489567       7.18389451
N        1.85079078       1.50652294       7.32493771
C        2.83027240       2.30653431       7.81144508
C        2.63225670       3.63340886       8.16348835
C        1.36510570       4.18693518       8.00679692
H       -3.49851675       3.77652330       6.13896669
H       -4.54609216       5.21245596       3.72385232
H       -5.25233122       3.77248876       4.45275158
H       -4.22053842       1.54011746       4.14932531
H       -2.78843653       0.12171170       2.73232539
H       -0.96746591       3.64242585       1.03827779
H       -2.39486445       5.06686013       2.45913677
H       -3.05427559       5.39455826       7.88246881
H       -2.26277928       6.87654218       7.38600536
H       -0.13994067       1.39540921       6.79161528
H        3.80182808       1.82961386       7.91265697
H        1.18269587       5.22113846       8.28250319
C        3.71437642       4.42476360       8.68920178
C        4.62065168       5.08752319       9.12948678
Br       6.08602212       6.15914940       9.84139038
O        6.90102762      -4.12761952       3.26963507
C        6.21454279      -5.12472281       3.06549326
N        4.93564904      -5.28522210       3.55039419
C        4.26919116      -4.25404202       4.30828700
C        3.39988794      -3.39466100       3.42815476
C        2.06195585      -3.74106882       3.18823666
C        1.25802657      -2.93884641       2.37540765
C        1.79179701      -1.79179701       1.79179701
C        3.12368378      -1.44357953       2.00571591
C        3.92662743      -2.24705887       2.81787129
C        6.73092014      -6.32204587       2.26200435
O        6.43260354      -6.27641620       0.86789699
C        5.14749712      -6.54795198       0.54330935
O        4.24604223      -6.78717829       1.32948756
C        4.97140512      -6.50363707      -0.92147402
C        3.68601366      -6.37330893      -1.43321461
N        3.40367311      -6.33642686      -2.75943009
C        4.45486157      -6.44090868      -3.60806325
C        5.76878173      -6.58301927      -3.18716049
C        6.03596560      -6.61444948      -1.82178869
H        4.35119982      -5.97855329       3.08425364
H        5.00204913      -3.63807413       4.84227719
H        3.65676515      -4.75292195       5.06788446
H        1.63627223      -4.63549768       3.63821127
H        0.22064762      -3.21539793       2.20642807
H        3.54641011      -0.55310663       1.54865282
H        4.96951616      -1.97477314       2.97657204
H        6.36885879      -7.25890349       2.70354038
H        7.82138402      -6.34027715       2.36366565
H        2.81991334      -6.28743785      -0.78038603
H        4.19547804      -6.40814117      -4.66317646
H        7.05530329      -6.73270634      -1.46706385
C        6.83888303      -6.70384005      -4.14313411
C        7.73509286      -6.80502745      -4.94376201
Br       9.18418837      -6.96863892      -6.23830962
C       -0.00445707       0.01189536      -1.78238275
H       -0.66409135       0.67374010      -2.43557963
H        0.65740317      -0.63156657      -2.45157240
C       -0.90989263      -0.90692880      -0.91072765
C        0.90977584       0.90977584      -0.90977584
C       -0.00465871       1.77757030       0.00794375
H       -0.66225468       2.44313916      -0.64384735
H        0.64322798       2.43503045       0.67728295
C       -1.78241447       0.00034974      -0.00472694
H       -2.45427497      -0.65498947       0.64260836
H       -2.43311707       0.67328779      -0.65473579
C       -0.91132561       0.90220522       0.91563759
C       -0.01476271      -0.02253852       1.78660255
H       -0.67934791      -0.69751639       2.42135241
H        0.63392994       0.61504881       2.47327442
C        0.01484550      -1.77751727      -0.01636693
H        0.67870853      -2.42144646      -0.68295456
H       -0.62264859      -2.45592969       0.64226336
C        1.78714474       0.01002794       0.00389507
H        2.44202412       0.67113390       0.66197326
H        2.45385902      -0.65136977      -0.64189061
C        0.91606151      -0.90478549       0.90901405
