141
Properties=species:S:1:pos:R:3 pbc="F F F"
C        0.00000000       0.00000000       0.00000000
O        1.66609940       5.02277198      -4.87969877
C        2.21612980       4.05727242      -5.40164457
N        3.08440820       3.22009814      -4.73704693
C        3.38319493       3.38366227      -3.33495092
C        2.51015193       2.50583272      -2.47700698
C        2.90569411       1.19856499      -2.15729015
C        2.09544579       0.38962680      -1.35749597
C        0.88189298       0.88189298      -0.88189298
C        0.46634344       2.17175833      -1.20516537
C        1.27698663       2.97917289      -2.00568600
C        2.01071471       3.69821172      -6.87633184
O        0.95576396       2.76998563      -7.12145507
C        1.22895298       1.48591098      -6.79418243
O        2.26287726       1.08042095      -6.28969780
C        0.07977658       0.62028346      -7.12379606
C       -0.00018509      -0.63367468      -6.53025568
N       -1.00092476      -1.51755130      -6.76943386
C       -1.95861843      -1.12925836      -7.64587171
C       -1.95483490       0.09833295      -8.29143040
C       -0.92055964       0.99138467      -8.02808928
H        3.23858308       2.29916563      -5.14654597
H        3.27669002       4.43447215      -3.04152620
H        4.43680071       3.11743637      -3.19362242
H        3.85079745       0.80450693      -2.52496474
H        2.41988717      -0.61786446      -1.11073883
H       -0.48156933       2.55863688      -0.84138993
H        0.94469425       3.98461193      -2.26184310
H        2.95065010       3.33807119      -7.31286931
H        1.76390904       4.62326809      -7.40843762
H        0.75158056      -0.97701238      -5.82268491
H       -2.74573980      -1.85942831      -7.81589878
H       -0.89085723       1.95545622      -8.52663471
C       -2.99674324       0.44278399      -9.22383615
C       -3.86934148       0.73126173     -10.00472597
Br      -5.28025902       1.19770584     -11.26735877
O       -5.79129417      -1.99756037      -3.77971561
C       -5.73800659      -2.94102467      -2.99601552
N       -4.59875879      -3.67901979      -2.76377467
C       -3.34067812      -3.36465602      -3.39647398
C       -2.47917057      -2.49865264      -2.51516842
C       -1.59177336      -3.07528352      -1.59449237
C       -0.79127685      -2.26867607      -0.78261564
C       -0.88189298      -0.88189298      -0.88189298
C       -1.77112995      -0.29355380      -1.77858340
C       -2.57158249      -1.10119429      -2.58906873
C       -6.96081032      -3.41786226      -2.20658569
O       -7.10477400      -2.82534326      -0.91708740
C       -6.25217108      -3.28462455       0.02774925
O       -5.37521700      -4.11520802      -0.14257099
C       -6.51992831      -2.62427310       1.32034530
C       -5.53735422      -2.66135843       2.30231674
N       -5.67852768      -2.10271934       3.53028921
C       -6.85776170      -1.48615584       3.78592262
C       -7.89662198      -1.40854032       2.87023385
C       -7.72862367      -1.98518836       1.61489770
H       -4.56853311      -4.21735346      -1.89840810
H       -3.51048833      -2.87817898      -4.36402106
H       -2.83301870      -4.31413234      -3.60070845
H       -1.51471610      -4.15710822      -1.50844479
H       -0.10183044      -2.73028910      -0.08064200
H       -1.84964674       0.78735434      -1.85616508
H       -3.27065806      -0.63676840      -3.28372281
H       -6.95901979      -4.51235277      -2.13021804
H       -7.85061763      -3.15585379      -2.78914332
H       -4.57963967      -3.14814546       2.13053204
H       -6.93943932      -1.04918153       4.77789017
H       -8.52988462      -1.94467112       0.88332203
C       -9.13111059      -0.75050212       3.21173582
C      -10.16499481      -0.19939513       3.49774371
Br     -11.83669814       0.69169826       3.96019429
O       -1.68087712       4.71254469       5.17514834
C       -2.36105265       3.76239052       5.55160362
N       -3.23142739       3.07408053       4.73604533
C       -3.37851495       3.38788719       3.33540598
C       -2.50734341       2.50877480       2.47687342
C       -2.98337013       1.27867967       1.99949946
C       -2.17401221       0.46881397       1.19974239
C       -0.88189298       0.88189298       0.88189298
C       -0.38789630       2.09249815       1.36287269
C       -1.19784914       2.90082747       2.16316891
C       -2.33065965       3.25736452       6.99723411
O       -1.38961228       2.21410154       7.24349084
C       -1.74156641       0.99589948       6.77158049
O       -2.75373510       0.73749713       6.14176378
C       -0.70973163      -0.00176367       7.11588814
C       -0.68329373      -1.20072322       6.41382540
N        0.20846257      -2.19427984       6.65370021
C        1.10777523      -1.97820228       7.64397243
C        1.14955473      -0.81727022       8.40175340
C        0.22767562       0.19072622       8.13586372
H       -3.50439343       2.13990682       5.03999443
H       -3.15259048       4.44524335       3.15485454
H       -4.43291056       3.23762469       3.07732424
H       -3.99033533       0.94662112       2.24331267
H       -2.56028089      -0.47728535       0.82976600
H        0.62085019       2.41682629       1.12248138
H       -0.80487997       3.84331311       2.54295620
H       -3.33614942       2.95240197       7.31303921
H       -2.05603097       4.10418237       7.63540140
H       -1.39072618      -1.40683145       5.61335836
H        1.80785195      -2.79275641       7.81133903
H        0.23479382       1.10575763       8.72026990
C        2.12314142      -0.65766565       9.45068397
C        2.93852027      -0.52399682      10.32916332
Br       4.25691892      -0.30786563      11.74959013
O        5.85105461      -3.64480917       2.07270636
C        5.04170782      -4.56787772       2.06546124
N        3.82091564      -4.51971954       2.70091808
C        3.36563628      -3.34013209       3.39603974
C        2.49395852      -2.48178530       2.51724780
C        1.10740764      -2.68792552       2.46621609
C        0.30222039      -1.88663793       1.65371024
C        0.88189298      -0.88189298       0.88189298
C        2.25953410      -0.67603366       0.90769938
C        3.06353218      -1.47851512       1.71979822
C        5.32550633      -5.89820867       1.36154329
O        4.86772586      -5.96711988       0.01235892
C        3.53113764      -6.11485762      -0.13694887
O        2.71072018      -6.15754905       0.76472677
C        3.18530007      -6.20742337      -1.56886734
C        1.86906279      -5.97868113      -1.95134801
N        1.43430318      -6.05085087      -3.23419624
C        2.35797437      -6.37213871      -4.17211816
C        3.69013165      -6.62572309      -3.88092629
C        4.11524739      -6.54213175      -2.55846482
H        3.11330770      -5.18351202       2.38747496
H        4.21956965      -2.76330285       3.76981587
H        2.79930686      -3.67681137       4.27174127
H        0.64543951      -3.47079641       3.06403319
H       -0.77165443      -2.05249360       1.63192237
H        2.71730263       0.10252787       0.30368272
H        4.14114457      -1.31863987       1.73136484
H        4.92074087      -6.73153821       1.94931151
H        6.41193337      -6.03690635       1.34677502
H        1.10240491      -5.71916425      -1.22431607
H        1.97815471      -6.42197987      -5.18940390
H        5.15127508      -6.74373240      -2.30377377
C        4.61775118      -6.97696384      -4.92483813
C        5.39463254      -7.27112798      -5.79911430
Br       6.65078400      -7.74676650      -7.21274491
