170
Properties=species:S:1:pos:R:3 pbc="F F F"
C        1.79172854       1.79172854      -1.79172854
C        1.34050189       3.05100575      -2.18003516
C        2.15400900       3.86159585      -2.97099920
C        3.41289135       3.41085980      -3.37293716
C        3.86750779       2.13925893      -2.99525948
C        5.24370134       1.66871657      -3.38384403
N        6.20185969       2.06854196      -2.38521347
C        7.36142451       1.36948408      -2.16959583
O        7.66994654       0.38242593      -2.83042339
C        8.23111575       1.89263625      -1.12738638
C        9.62600059       1.65381182      -1.05837960
N       10.20660750       2.25363547      -0.02071518
N        9.18197857       2.84365105       0.60679705
H        9.37685962       3.33706854       1.47130077
C        7.95845359       2.67219034      -0.00261950
C        6.73146351       3.20555912       0.59675521
C        5.55737689       2.44014066       0.63552372
C        4.38077454       2.95652699       1.18514160
C        4.37109443       4.23500616       1.73659233
C        5.53933585       4.99169275       1.73112159
C        6.71158683       4.49017146       1.16024025
C        3.04688519       1.33358114      -2.19137829
H        0.36249309       3.41030030      -1.87124866
H        1.80825872       4.84734120      -3.27283505
H        4.03901474       4.05923347      -3.98284634
H        5.54838641       2.10573280      -4.34131219
H        5.25635422       0.57954239      -3.50947670
H        6.08182670       2.96854104      -1.93888979
H       10.23361600       1.07192390      -1.74163769
H        5.54072778       1.42837429       0.23413822
H        3.47338348       2.35679164       1.18536843
H        3.45443489       4.62664477       2.16991483
H        7.60294122       5.11294491       1.14981937
H        3.39475713       0.35242942      -1.87496794
C        5.54034496       6.30475036       2.32228884
C        5.54119010       7.40443610       2.81739142
Br       5.54255661       9.18253493       3.61793040
C       -1.79172854      -1.79172854      -1.79172854
C       -3.15097973      -1.90944928      -1.51111379
C       -3.95778463      -2.70141500      -2.32740441
C       -3.40407080      -3.37425544      -3.41836207
C       -2.03413755      -3.26926676      -3.69862190
C       -1.44175371      -3.95206603      -4.90244220
N       -1.52082373      -3.08482006      -6.04997133
C       -0.63386790      -3.17506619      -7.09157033
O        0.25971443      -4.01555487      -7.12695543
C       -0.83853071      -2.23224890      -8.18035877
C       -0.39086397      -2.43862160      -9.50870645
N       -0.71311406      -1.43957002     -10.32827406
N       -1.32980571      -0.56675340      -9.52227345
H       -1.63419493       0.31411692      -9.92254938
C       -1.44526060      -0.97605204      -8.21195080
C       -2.04104280      -0.10425398      -7.19497064
C       -1.45955670       0.02308194      -5.92551906
C       -2.03997244       0.83529584      -4.94748333
C       -3.19272532       1.56047858      -5.23726152
C       -3.76085297       1.46531754      -6.50437157
C       -3.19919632       0.63529415      -7.47761587
C       -1.23094379      -2.46278072      -2.87812010
H       -3.59063764      -1.38878469      -0.66461972
H       -5.02033739      -2.79277221      -2.11532536
H       -4.04909887      -3.98133921      -4.05065646
H       -1.98715368      -4.87355802      -5.13471969
H       -0.40011968      -4.23526768      -4.70998595
H       -2.33885252      -2.49829788      -6.15210712
H        0.14763308      -3.29317250      -9.90163817
H       -0.54483153      -0.51252598      -5.67760635
H       -1.58768964       0.90354111      -3.96065815
H       -3.63364209       2.19669833      -4.47422107
H       -3.67800854       0.56321658      -8.45127479
H       -0.17006268      -2.35691628      -3.09517554
C       -4.93894244       2.23240593      -6.81626996
C       -5.92559238       2.87484245      -7.07748485
Br      -7.52092187       3.91360798      -7.49984725
C       -1.79172854       1.79172854       1.79172854
C       -3.15864742       1.87549466       1.53740073
C       -3.96494478       2.66766634       2.35399293
C       -3.40314926       3.37456896       3.41897008
C       -2.02582807       3.30374197       3.67245617
C       -1.42326377       4.02376968       4.84922849
N       -1.46041833       3.17940782       6.01578897
C       -0.55428783       3.30979542       7.03642117
O        0.32195731       4.16907221       7.03568096
C       -0.71660127       2.38607218       8.14846492
C       -0.24610488       2.62951791       9.46256922
N       -0.53031787       1.64149965      10.30914063
N       -1.14498738       0.73940393       9.53444126
H       -1.42247063      -0.13893572       9.95909247
C       -1.29599458       1.11858549       8.21868336
C       -1.89413141       0.21350090       7.23263511
C       -1.33637025       0.07149749       5.95412608
C       -1.91959829      -0.77289306       5.00545470
C       -3.05062847      -1.51541346       5.33429326
C       -3.59440844      -1.40534506       6.61084362
C       -3.03040466      -0.54363997       7.55475334
C       -1.22292162       2.49689331       2.85202969
H       -3.60460125       1.32819354       0.71124725
H       -5.03332745       2.73263405       2.16247347
H       -4.04764153       3.98140135       4.05205166
H       -1.98302489       4.93851244       5.07389407
H       -0.39200280       4.32425856       4.62911195
H       -2.26365160       2.57843647       6.14716945
H        0.28227873       3.50305654       9.82639979
H       -0.43841465       0.62050238       5.67604683
H       -1.48640511      -0.85254833       4.01094990
H       -3.49369087      -2.17649023       4.59396420
H       -3.49046760      -0.46097750       8.53657666
H       -0.15580222       2.41749489       3.04885739
C       -4.74942709      -2.18980961       6.96318899
C       -5.71675522      -2.84679868       7.25827824
Br      -7.28084298      -3.90909444       7.73541260
C        1.79172854      -1.79172854       1.79172854
C        1.69254058      -3.17811798       1.70088425
C        2.51048842      -3.98167216       2.49444347
C        3.42177561      -3.39812538       3.37678732
C        3.51754919      -2.00307402       3.48140300
C        4.53305827      -1.36906363       4.39414004
N        5.77812255      -1.18385473       3.69363784
C        6.66571014      -0.19714057       4.03765370
O        6.47162387       0.56700228       4.97817426
C        7.87999984      -0.13191978       3.23921876
C        9.09673876       0.44215761       3.68361086
N       10.06997192       0.36666732       2.77765354
N        9.47206081      -0.21562989       1.73114187
H       10.01633687      -0.34171379       0.88457672
C        8.15068205      -0.54761620       1.93496518
C        7.34243707      -1.13544705       0.86238330
C        6.02925654      -0.70232633       0.63041095
C        5.24978882      -1.27864508      -0.37627397
C        5.78556144      -2.27363519      -1.18968837
C        7.09851961      -2.68939975      -0.98801236
C        7.87372658      -2.13460138       0.03319008
C        2.69775629      -1.20154513       2.67254320
H        0.98669137      -3.64094501       1.01640566
H        2.44018818      -5.06445048       2.42379630
H        4.05895773      -4.03938773       3.98274908
H        4.72461250      -2.00578881       5.26503009
H        4.16283411      -0.40918211       4.77335709
H        6.06548161      -1.89254902       3.03122689
H        9.30207252       0.89942870       4.64453378
H        5.59135599       0.09059961       1.23420748
H        4.22515576      -0.94601948      -0.52636856
H        5.17607922      -2.71120673      -1.97612111
H        8.88868093      -2.49544682       0.18193900
H        2.77496344      -0.11775926       2.72943180
C        7.66473401      -3.70067480      -1.84260234
C        8.13893857      -4.54761765      -2.55832145
Br       8.90568723      -5.91705261      -3.71557871
C       -0.00445707       0.01189536      -1.78238275
H       -0.66409135       0.67374010      -2.43557963
H        0.65740317      -0.63156657      -2.45157240
C       -0.90989263      -0.90692880      -0.91072765
C        0.90977584       0.90977584      -0.90977584
C       -0.00465871       1.77757030       0.00794375
H       -0.66225468       2.44313916      -0.64384735
H        0.64322798       2.43503045       0.67728295
C       -1.78241447       0.00034974      -0.00472694
H       -2.45427497      -0.65498947       0.64260836
H       -2.43311707       0.67328779      -0.65473579
C       -0.91132561       0.90220522       0.91563759
C       -0.01476271      -0.02253852       1.78660255
H       -0.67934791      -0.69751639       2.42135241
H        0.63392994       0.61504881       2.47327442
C        0.01484550      -1.77751727      -0.01636693
H        0.67870853      -2.42144646      -0.68295456
H       -0.62264859      -2.45592969       0.64226336
C        1.78714474       0.01002794       0.00389507
H        2.44202412       0.67113390       0.66197326
H        2.45385902      -0.65136977      -0.64189061
C        0.91606151      -0.90478549       0.90901405
