162
Properties=species:S:1:pos:R:3 pbc="F F F"
C        1.79172854       1.79172854      -1.79172854
C        1.34050189       3.05100575      -2.18003516
C        2.15400900       3.86159585      -2.97099920
C        3.41289135       3.41085980      -3.37293716
C        3.86750779       2.13925893      -2.99525948
C        5.24370134       1.66871657      -3.38384403
N        6.20185969       2.06854196      -2.38521347
C        7.36142451       1.36948408      -2.16959583
O        7.66994654       0.38242593      -2.83042339
C        8.23111575       1.89263625      -1.12738638
C        9.62600059       1.65381182      -1.05837960
N       10.20660750       2.25363547      -0.02071518
N        9.18197857       2.84365105       0.60679705
H        9.37685962       3.33706854       1.47130077
C        7.95845359       2.67219034      -0.00261950
C        6.73146351       3.20555912       0.59675521
C        5.55737689       2.44014066       0.63552372
C        4.38077454       2.95652699       1.18514160
C        4.37109443       4.23500616       1.73659233
C        5.53933585       4.99169275       1.73112159
Br       5.54066096       6.71592923       2.50741057
C        6.71158683       4.49017146       1.16024025
C        3.04688519       1.33358114      -2.19137829
H        0.36249309       3.41030030      -1.87124866
H        1.80825872       4.84734120      -3.27283505
H        4.03901474       4.05923347      -3.98284634
H        5.54838641       2.10573280      -4.34131219
H        5.25635422       0.57954239      -3.50947670
H        6.08182670       2.96854104      -1.93888979
H       10.23361600       1.07192390      -1.74163769
H        5.54072778       1.42837429       0.23413822
H        3.47338348       2.35679164       1.18536843
H        3.45443489       4.62664477       2.16991483
H        7.60294122       5.11294491       1.14981937
H        3.39475713       0.35242942      -1.87496794
C       -1.79172854      -1.79172854      -1.79172854
C       -3.17773036      -1.67258511      -1.72122734
C       -3.98081630      -2.46642751      -2.53936022
C       -3.39726058      -3.37725444      -3.42217329
C       -2.00293248      -3.51026284      -3.48883088
C       -1.36753685      -4.45445659      -4.47426850
N       -1.14507976      -3.78191686      -5.72861850
C       -0.14850444      -4.16183399      -6.59016599
O        0.59339667      -5.11279273      -6.36339980
C       -0.04467566      -3.38851476      -7.81794796
C        0.54373594      -3.86730260      -9.01462535
N        0.50440203      -2.97914001     -10.00622017
N       -0.06874798      -1.91031468      -9.43976991
H       -0.16798043      -1.07222949     -10.00241747
C       -0.42973766      -2.08208177      -8.12144400
C       -1.01191932      -0.98300639      -7.34534171
C       -0.59946698      -0.73387136      -6.02865548
C       -1.17087221       0.29855339      -5.27984111
C       -2.13949505       1.12021541      -5.85022862
C       -2.53401362       0.90103925      -7.16693263
Br      -3.82552225       2.03368221      -7.95733959
C       -1.98448385      -0.14540501      -7.91162917
C       -1.20160913      -2.70105112      -2.66918437
H       -3.64053996      -0.96583864      -1.03766344
H       -5.06316128      -2.37381759      -2.49145610
H       -4.03791522      -3.98315003      -4.06002929
H       -2.01728808      -5.31661605      -4.66152726
H       -0.42242550      -4.84462767      -4.07832014
H       -1.83517633      -3.11183207      -6.04224912
H        0.98609050      -4.84056672      -9.19270137
H        0.17310082      -1.34404472      -5.56401996
H       -0.85497162       0.46215232      -4.25198738
H       -2.57324333       1.92652609      -5.26444761
H       -2.32875205      -0.30693334      -8.93038135
H       -0.11785828      -2.78006087      -2.72423535
C       -1.79172854       1.79172854       1.79172854
C       -3.10014356       2.06881993       1.40257932
C       -3.90923157       2.86006326       2.21730920
C       -3.40818426       3.37323466       3.41526938
C       -2.08799864       3.10773041       3.80629716
C       -1.55894904       3.61673269       5.12058021
N       -1.82968603       2.66154946       6.16437963
C       -1.04613379       2.56874331       7.28562732
O       -0.08824501       3.30961226       7.48493859
C       -1.44231391       1.55646134       8.25236312
C       -1.11208056       1.59648779       9.62962366
N       -1.60310546       0.56448525      10.31336744
N       -2.21294386      -0.16633077       9.37221948
H       -2.63392317      -1.04512466       9.65382887
C       -2.16015494       0.36909135       8.10401714
C       -2.72821297      -0.34373640       6.95579085
C       -2.03733113      -0.41304507       5.73770776
C       -2.58865039      -1.07187336       4.63538290
C       -3.82526324      -1.70209397       4.74633899
C       -4.50558117      -1.66578485       5.96011068
Br      -6.17026113      -2.54720340       6.12612190
C       -3.97076618      -0.98701123       7.05776308
C       -1.28338209       2.30283758       2.98562495
H       -3.49871888       1.67302871       0.47229446
H       -4.93282882       3.07535178       1.92025437
H       -4.05537417       3.98181237       4.04390801
H       -2.03925803       4.56310083       5.39307254
H       -0.48204339       3.81122909       5.05210082
H       -2.70343343       2.15241553       6.13340855
H       -0.54032510       2.35428607      10.15256643
H       -1.05787410       0.04919312       5.62789664
H       -2.04855295      -1.09531438       3.69156811
H       -4.24381781      -2.21980646       3.88715349
H       -4.53549802      -0.95594671       7.98651545
H       -0.26324633       2.07288989       3.28601828
C        1.79172854      -1.79172854       1.79172854
C        1.47514235      -3.13787852       1.95852194
C        2.29097736      -3.94540345       2.75022323
C        3.41745085      -3.40537382       3.37386364
C        3.73437869      -2.04816802       3.21947950
C        4.97504671      -1.47261274       3.84860248
N        6.09311169      -1.61157125       2.95093218
C        7.16246071      -0.75415084       2.98389287
O        7.24928942       0.16216625       3.79567269
C        8.21588476      -1.01903186       2.01622175
C        9.56237723      -0.60575774       2.17005704
N       10.34168299      -0.98165341       1.15762174
N        9.49204543      -1.59904427       0.32774287
H        9.85651398      -1.94100013      -0.55488673
C        8.19183730      -1.66293052       0.77849561
C        7.13204882      -2.25304185      -0.04482325
C        5.87689212      -1.63753413      -0.15243243
C        4.85825909      -2.21172307      -0.91782223
C        5.09219946      -3.39340867      -1.61609987
C        6.34443781      -3.99644048      -1.54097129
Br       6.67802522      -5.58389300      -2.51273859
C        7.35827157      -3.44032861      -0.75708215
C        2.91379294      -1.24454893       2.41350275
H        0.60084005      -3.56686866       1.47633335
H        2.05075220      -4.99795377       2.87972900
H        4.04861287      -4.05112823       3.98135344
H        5.21893566      -1.99757228       4.77892346
H        4.82177048      -0.41781200       4.10579082
H        6.15354729      -2.44911603       2.38659420
H        9.99647224      -0.05457731       2.99612805
H        5.67210276      -0.70047428       0.36238681
H        3.88348025      -1.73209396      -0.97076753
H        4.29775756      -3.82955254      -2.21614527
H        8.31923512      -3.94595479      -0.69912316
H        3.15850395      -0.19424321       2.26940734
C       -0.00445707       0.01189536      -1.78238275
H       -0.66409135       0.67374010      -2.43557963
H        0.65740317      -0.63156657      -2.45157240
C       -0.90989263      -0.90692880      -0.91072765
C        0.90977584       0.90977584      -0.90977584
C       -0.00465871       1.77757030       0.00794375
H       -0.66225468       2.44313916      -0.64384735
H        0.64322798       2.43503045       0.67728295
C       -1.78241447       0.00034974      -0.00472694
H       -2.45427497      -0.65498947       0.64260836
H       -2.43311707       0.67328779      -0.65473579
C       -0.91132561       0.90220522       0.91563759
C       -0.01476271      -0.02253852       1.78660255
H       -0.67934791      -0.69751639       2.42135241
H        0.63392994       0.61504881       2.47327442
C        0.01484550      -1.77751727      -0.01636693
H        0.67870853      -2.42144646      -0.68295456
H       -0.62264859      -2.45592969       0.64226336
C        1.78714474       0.01002794       0.00389507
H        2.44202412       0.67113390       0.66197326
H        2.45385902      -0.65136977      -0.64189061
C        0.91606151      -0.90478549       0.90901405
