198
Properties=species:S:1:pos:R:3 pbc="F F F"
C        1.79196733       1.79196733      -1.79196733
C        1.26771706       2.94818352      -2.36097692
C        2.08146808       3.74973448      -3.16776066
C        3.41708762       3.40527034      -3.42612569
C        3.92068588       2.23534487      -2.84109147
C        3.11733348       1.43273143      -2.02325822
C        4.24736070       4.23777502      -4.29997800
C        5.42073096       3.74340006      -5.09998127
C        6.13040197       5.05600183      -5.39040377
H        6.75755354       5.31377314      -4.52090761
N        4.98502893       5.94668919      -5.50404533
N        4.02410511       5.55880187      -4.47191673
C        5.44694006       7.33289606      -5.51928853
H        5.85428908       7.61946360      -4.54033458
O        6.48336684       7.61782390      -6.50630379
C        7.10882333       6.54316158      -7.08692337
C        7.88912184       6.81305697      -8.21080173
C        8.50386490       5.76402515      -8.89413829
C        8.34244534       4.45370569      -8.44070340
Cl       9.08942126       3.16073239      -9.30012003
C        7.58343731       4.18008098      -7.30268894
C        6.95738989       5.22959554      -6.62262022
C        4.32170524       8.32911468      -5.86477581
O        4.13992045       9.35578814      -5.19052488
C        3.51926835       8.18537030      -7.13189402
C        3.63833428       7.10204537      -8.01114635
C        2.90538739       7.05464896      -9.20223817
C        2.03992818       8.09495901      -9.52240197
Br       1.05814720       8.03725809     -11.13728633
C        1.89627707       9.17944499      -8.66190270
C        2.63170044       9.22156145      -7.47240711
H        0.23719165       3.24114296      -2.19302068
H        1.67026410       4.65135580      -3.61753149
H        4.95373399       1.94716275      -3.00143100
H        3.53942668       0.53891212      -1.57701281
H        5.06791826       3.23893496      -6.00758311
H        6.07803163       3.06529792      -4.54870098
H        7.99298774       7.83509173      -8.56117105
H        9.09432667       5.97301111      -9.78100063
H        7.46393788       3.15837587      -6.95634337
H        4.29024114       6.26346837      -7.78407140
H        3.02080928       6.19508231      -9.85611022
H        1.22034063       9.99441624      -8.89959714
H        2.51538078      10.07434119      -6.80654418
C       -1.79196733      -1.79196733      -1.79196733
C       -3.17526541      -1.75234148      -1.64927062
C       -3.97556305      -2.56341774      -2.45998243
C       -3.41049149      -3.42823030      -3.40976186
C       -2.01446742      -3.44930260      -3.53335220
C       -1.20585504      -2.63314763      -2.73432046
C       -4.26047013      -4.29579522      -4.22884838
C       -3.83080853      -5.60727281      -4.82603094
C       -4.89409423      -5.78486859      -5.89784475
H       -4.58982934      -5.21255655      -6.78984840
N       -6.03318110      -5.16961472      -5.23296763
N       -5.54173879      -3.98769013      -4.52539479
C       -7.11709783      -4.98639654      -6.19563027
H       -6.85427593      -4.22127192      -6.93853940
O       -7.47962488      -6.18843087      -6.93943877
C       -6.60780513      -7.24678167      -6.88432149
C       -7.08413753      -8.46764554      -7.36119747
C       -6.27945895      -9.60387250      -7.27869689
C       -4.99953259      -9.50731605      -6.73000578
Cl      -4.01771164     -10.91833446      -6.61422758
C       -4.50828405      -8.28386842      -6.27405477
C       -5.31785239      -7.14574229      -6.34601097
C       -8.43690792      -4.55175104      -5.52693677
O       -9.10566402      -3.60612070      -5.97444875
C       -9.05110557      -5.36686813      -4.41855897
C       -8.43403963      -6.48099573      -3.83649063
C       -9.08177527      -7.23155753      -2.84894172
C      -10.35751403      -6.86853603      -2.43123910
Br     -11.23810438      -7.88919943      -1.10538781
C      -10.99005840      -5.76037851      -2.98718785
C      -10.33769282      -5.01368037      -3.97429581
H       -3.64769978      -1.10484058      -0.91881493
H       -5.05739579      -2.53681004      -2.34494557
H       -1.54238400      -4.08987970      -4.27006403
H       -0.12922413      -2.66509540      -2.86103207
H       -3.85985005      -6.39303763      -4.06154865
H       -2.83373680      -5.58384792      -5.27444580
H       -8.08723632      -8.53109945      -7.77091475
H       -6.65888180     -10.55807036      -7.63138625
H       -3.51145160      -8.21745073      -5.84975479
H       -7.43101751      -6.78195377      -4.12480964
H       -8.56850508      -8.08602438      -2.41747235
H      -11.98354365      -5.46541582      -2.66539454
H      -10.84042015      -4.15030007      -4.40554594
C       -1.79196733       1.79196733       1.79196733
C       -1.33355328       3.03910421       2.20422002
C       -2.14674124       3.84008844       3.01213354
C       -3.41515711       3.40624099       3.42708555
C       -3.85318144       2.14578111       2.99815967
C       -3.05117073       1.34176747       2.18038493
C       -4.24182135       4.24292153       4.30037084
C       -5.28741648       3.72681319       5.24988261
C       -6.09190949       4.99392287       5.49097521
H       -6.81482109       5.11077585       4.66663734
N       -5.03205821       5.98845716       5.41524808
N       -4.13254144       5.58883450       4.33344777
C       -5.62213117       7.32379512       5.35319836
H       -6.13948827       7.47794829       4.39665068
O       -6.59055529       7.61036816       6.40657108
C       -7.05629518       6.54587199       7.13674111
C       -7.75731742       6.85318755       8.30247557
C       -8.20588989       5.82493091       9.13120753
C       -7.95950058       4.49628919       8.78106465
Cl      -8.50024885       3.23151609       9.81850875
C       -7.28046879       4.18204733       7.60369112
C       -6.82044800       5.21208900       6.77706866
C       -4.57206268       8.44351187       5.50002118
O       -4.54981107       9.41248738       4.72393501
C       -3.65144755       8.49336848       6.69171664
C       -3.58807454       7.49346013       7.66999133
C       -2.75230232       7.62542876       8.78454343
C       -1.96626265       8.76363104       8.92739546
Br      -0.84560051       8.94800922      10.43908188
C       -2.00372627       9.76865280       7.96524569
C       -2.84130557       9.63138556       6.85297787
H       -0.35474244       3.40381932       1.91279353
H       -1.78636566       4.81340276       3.33938298
H       -4.83562164       1.78484812       3.28185798
H       -3.42278446       0.37557264       1.85699450
H       -4.80941714       3.34496531       6.16005389
H       -5.92221447       2.94375039       4.82606566
H       -7.92793650       7.89112911       8.57018491
H       -8.73362524       6.06569741      10.04901576
H       -7.09402804       3.14619162       7.33843746
H       -4.17363183       6.58297015       7.58117893
H       -2.72662981       6.82599764       9.51937437
H       -1.39114009      10.65886869       8.06434524
H       -2.86648676      10.42301213       6.10676726
C        1.79196733      -1.79196733       1.79196733
C        3.17527522      -1.64940622       1.75219607
C        3.97564966      -2.46117979       2.56213378
C        3.41181734      -3.42809165       3.40857466
C        2.01579228      -3.55166823       3.42966172
C        1.20599385      -2.73623951       2.63108977
C        4.26513556      -4.29334750       4.22663067
C        3.89187621      -5.67028537       4.70195070
C        4.89083567      -5.85279547       5.83317642
H        4.48697479      -5.36789480       6.73736470
N        6.02473540      -5.11620674       5.29482131
N        5.49809886      -3.92207726       4.63464759
C        7.02558053      -4.93041300       6.34313111
H        6.65909057      -4.24012189       7.11487479
O        7.42294293      -6.15581654       7.02873506
C        6.63523838      -7.26358334       6.84008656
C        7.16512719      -8.48087128       7.26698206
C        6.45168165      -9.65965806       7.05068863
C        5.20785138      -9.60999159       6.41901146
Cl       4.34013744     -11.07173115       6.13840510
C        4.66152824      -8.39263993       6.01203907
C        5.38041090      -7.21087597       6.21831879
C        8.35258273      -4.36114966       5.80186334
O        8.91998333      -3.40743234       6.35881779
C        9.09687356      -5.05129666       4.68836245
C        8.60207322      -6.15953769       3.98991510
C        9.36698153      -6.79188907       3.00340392
C       10.63843387      -6.31492715       2.70392812
Br      11.67721783      -7.17608623       1.37938756
C       11.15082055      -5.20970808       3.37709613
C       10.38161248      -4.58148064       4.36257588
H        3.64784023      -0.92075666       1.10275840
H        5.05803633      -2.35380097       2.52731410
H        1.54265817      -4.27385439       4.08581518
H        0.12838446      -2.84942367       2.67754348
H        4.02865476      -6.39525646       3.89052511
H        2.86785902      -5.74618204       5.07798945
H        8.14042008      -8.50617480       7.74265563
H        6.87427252     -10.60914078       7.36492511
H        3.69323681      -8.36291669       5.52250361
H        7.60623096      -6.54711766       4.18443230
H        8.94667286      -7.64560309       2.47972586
H       12.13985080      -4.82632498       3.14817823
H       10.79080260      -3.71958838       4.88587518
C       -0.00445707       0.01189536      -1.78238275
H       -0.66409135       0.67374010      -2.43557963
H        0.65740317      -0.63156657      -2.45157240
C       -0.90989263      -0.90692880      -0.91072765
C        0.90977584       0.90977584      -0.90977584
C       -0.00465871       1.77757030       0.00794375
H       -0.66225468       2.44313916      -0.64384735
H        0.64322798       2.43503045       0.67728295
C       -1.78241447       0.00034974      -0.00472694
H       -2.45427497      -0.65498947       0.64260836
H       -2.43311707       0.67328779      -0.65473579
C       -0.91132561       0.90220522       0.91563759
C       -0.01476271      -0.02253852       1.78660255
H       -0.67934791      -0.69751639       2.42135241
H        0.63392994       0.61504881       2.47327442
C        0.01484550      -1.77751727      -0.01636693
H        0.67870853      -2.42144646      -0.68295456
H       -0.62264859      -2.45592969       0.64226336
C        1.78714474       0.01002794       0.00389507
H        2.44202412       0.67113390       0.66197326
H        2.45385902      -0.65136977      -0.64189061
C        0.91606151      -0.90478549       0.90901405
