185
Properties=species:S:1:pos:R:3 pbc="F F F"
C        0.00000000       0.00000000       0.00000000
C        0.88206331       0.88206331      -0.88206331
C        0.35781304       2.03827949      -1.45107290
C        1.17156406       2.83983045      -2.25785664
C        2.50718360       2.49536631      -2.51622167
C        3.01078185       1.32544085      -1.93118745
C        2.20742946       0.52282740      -1.11335419
C        3.33745668       3.32787100      -3.39007398
C        4.51082693       2.83349604      -4.19007724
C        5.22049795       4.14609780      -4.48049975
H        5.84764951       4.40386911      -3.61100359
N        4.07512490       5.03678517      -4.59414131
N        3.11420109       4.64889784      -3.56201271
C        4.53703603       6.42299204      -4.60938451
H        4.94438506       6.70955957      -3.63043055
O        5.57346281       6.70791988      -5.59639977
C        6.19891931       5.63325756      -6.17701934
C        6.97921781       5.90315295      -7.30089771
C        7.59396088       4.85412112      -7.98423427
C        7.43254131       3.54380167      -7.53079938
Cl       8.17951724       2.25082837      -8.39021601
C        6.67353328       3.27017696      -6.39278492
C        6.04748586       4.31969152      -5.71271620
C        3.41180122       7.41921066      -4.95487179
O        3.23001643       8.44588412      -4.28062085
C        2.60936433       7.27546627      -6.22199000
C        2.72843026       6.19214135      -7.10124232
C        1.99548336       6.14474494      -8.29233415
C        1.13002415       7.18505498      -8.61249794
C        0.98637305       8.26954096      -7.75199868
C        1.72179641       8.31165743      -6.56250308
H       -0.67271237       2.33123893      -1.28311665
H        0.76036008       3.74145178      -2.70762747
H        4.04382996       1.03725873      -2.09152698
H        2.62952265      -0.37099191      -0.66710878
H        4.15801424       2.32903094      -5.09767908
H        5.16812760       2.15539389      -3.63879695
H        7.08308372       6.92518771      -7.65126702
H        8.18442265       5.06310708      -8.87109661
H        6.55403386       2.24847184      -6.04643935
H        3.38033712       5.35356435      -6.87416738
H        2.11090526       5.28517828      -8.94620620
H        0.31043661       9.08451222      -7.98969311
H        1.60547676       9.16443717      -5.89664015
C        0.38231182       7.14111067      -9.84237402
C       -0.24389725       7.10430731     -10.87239524
Br      -1.25642436       7.04479939     -12.53785243
C       -0.88206331      -0.88206331      -0.88206331
C       -2.26680297      -0.81317657      -0.76718589
C       -3.06711162      -1.62445213      -1.57768740
C       -2.50094777      -2.51830539      -2.49951842
C       -1.10349052      -2.56851619      -2.59540344
C       -0.29454741      -1.75255109      -1.79651256
C       -3.35186133      -3.38526061      -3.31827972
C       -2.93652947      -4.71613480      -3.88173595
C       -3.98235991      -4.89422833      -4.97050725
H       -3.64995357      -4.34537214      -5.86719650
N       -5.12174090      -4.24441055      -4.33989993
N       -4.62095665      -3.05852454      -3.64563045
C       -6.18324044      -4.05929897      -5.32687316
H       -5.89135229      -3.31399781      -6.07902508
O       -6.55485637      -5.26846334      -6.05446275
C       -5.70508109      -6.34203728      -5.96207784
C       -6.19593909      -7.56263330      -6.42469607
C       -5.41532470      -8.71223393      -6.30475764
C       -4.14449918      -8.62951131      -5.73313187
Cl      -3.19281086     -10.05654313      -5.57120762
C       -3.63827946      -7.40702666      -5.29118904
C       -4.42394663      -6.25522808      -5.40071888
C       -7.50687629      -3.58648670      -4.69252067
O       -8.14835034      -2.63714066      -5.17103040
C       -8.15798342      -4.36789758      -3.58093959
C       -7.57404661      -5.48206098      -2.96570634
C       -8.25510498      -6.20065751      -1.97679996
C       -9.53127795      -5.80518667      -1.59111246
C      -10.13130415      -4.69618477      -2.18042376
C       -9.44570144      -3.98153051      -3.16872498
H       -2.74040702      -0.14260967      -0.05862651
H       -4.15022318      -1.57489167      -1.48432447
H       -0.62998230      -3.23227730      -3.31035606
H        0.78348357      -1.80757794      -1.90154516
H       -2.99554077      -5.48612407      -3.10305942
H       -1.93078631      -4.72056700      -4.31096514
H       -7.19205561      -7.61485365      -6.85262919
H       -5.80648123      -9.66569488      -6.64645023
H       -2.64864833      -7.35143894      -4.84885777
H       -6.57175422      -5.80774308      -3.22857155
H       -7.76697163      -7.05620986      -1.51910824
H      -11.12482131      -4.37602487      -1.88379577
H       -9.92312605      -3.11726565      -3.62616238
C      -10.23618661      -6.54966386      -0.57994605
C      -10.82654761      -7.17316351       0.26690581
Br     -11.78111142      -8.18130970       1.63619365
C       -0.88206331       0.88206331       0.88206331
C       -0.60719280       2.24080497       0.99916766
C       -1.41891701       3.04117025       1.80916389
C       -2.50169857       2.49885176       2.51822125
C       -2.75692267       1.12727002       2.38321746
C       -1.95701767       0.32035392       1.56623947
C       -3.32290475       3.34399115       3.38850575
C       -4.09003083       2.85750649       4.58686289
C       -5.07021036       4.00457127       4.77231387
H       -5.92281899       3.84904916       4.09065406
N       -4.24161777       5.12138842       4.34304519
N       -3.46478361       4.67223216       3.18809586
C       -5.07448538       6.31137099       4.18355620
H       -5.75564684       6.19952214       3.32920620
O       -5.90134587       6.63473489       5.34170170
C       -6.03776481       5.66667770       6.30475370
C       -6.59159533       6.07338068       7.51829245
C       -6.70266414       5.16168922       8.56796290
C       -6.26914988       3.84658895       8.39140352
Cl      -6.39225044       2.73032649       9.69798467
C       -5.73716891       3.42752034       7.17180592
C       -5.61500477       4.34314160       6.12174721
C       -4.24386753       7.58984684       3.95216930
O       -4.52666711       8.38683469       3.04301959
C       -3.17308811       8.00718196       4.92655053
C       -2.76962582       7.23169981       6.02048830
C       -1.80868284       7.70077709       6.92310251
C       -1.23813210       8.95485256       6.73459242
C       -1.61489838       9.74240323       5.65061107
C       -2.57623744       9.26833403       4.75138545
H        0.22727452       2.69372253       0.47519520
H       -1.20099788       4.10303262       1.90540883
H       -3.59683646       0.67599470       2.89978450
H       -2.18656259      -0.73565047       1.47472741
H       -3.41152154       2.73369727       5.43950546
H       -4.62496572       1.91872011       4.41863262
H       -6.90998198       7.10309107       7.64646540
H       -7.11502736       5.48455174       9.51904724
H       -5.40344917       2.40278511       7.04271077
H       -3.18011640       6.24011142       6.18784102
H       -1.51779289       7.06794688       7.75654997
H       -1.17277289      10.72052664       5.49134241
H       -2.86697571       9.89153600       3.90804237
C       -0.25582491       9.44181717       7.66815445
C        0.56685736       9.84965003       8.45001264
Br       1.89706502      10.50908127       9.71421122
C        0.88206331      -0.88206331       0.88206331
C        2.09591281      -0.39503676       1.35621586
C        2.89781899      -1.20901720       2.16241497
C        2.50830500      -2.51554033       2.49492625
C        1.28107261      -2.98212567       2.00421187
C        0.46654819      -2.17108032       1.20598255
C        3.37449533      -3.36757000       3.31333632
C        3.39064881      -4.87067602       3.27307538
C        4.07651938      -5.17555922       4.59501690
H        3.31931842      -5.14716915       5.39603464
N        4.98471302      -4.04149299       4.67984537
N        4.26225311      -2.86447828       4.19838025
C        5.56653962      -3.98387784       6.01899512
H        4.80566529      -3.71471403       6.76399587
O        6.17631814      -5.23011641       6.47134790
C        5.88997676      -6.36472692       5.75449253
C        6.68138461      -7.48185545       6.02002840
C        6.49355128      -8.65282207       5.28594292
C        5.50716457      -8.70062142       4.29935637
Cl       5.29271237     -10.14418337       3.38366587
C        4.69589194      -7.59436193       4.04624129
C        4.89012015      -6.41590945       4.77386399
C        6.70777182      -2.95230316       6.12580869
O        6.75578641      -2.13843052       7.06230447
C        7.89582609      -3.01003704       5.20095745
C        8.00180531      -3.89724061       4.12276801
C        9.15709634      -3.94107523       3.33439088
C       10.21951659      -3.08989637       3.61816411
C       10.13679366      -2.19237832       4.67874071
C        8.97928018      -2.15299491       5.46368184
H        2.43549956       0.60537341       1.11151706
H        3.84996261      -0.83044413       2.52903259
H        0.93708111      -3.97912809       2.25640646
H       -0.48217178      -2.55771474       0.85009657
H        3.96524799      -5.21480017       2.40467611
H        2.39564927      -5.32330170       3.24336747
H        7.45501870      -7.42528645       6.77923330
H        7.12391582      -9.51544025       5.47927027
H        3.93053224      -7.64042870       3.27798411
H        7.18445581      -4.56285770       3.86075534
H        9.19970561      -4.63918683       2.50339729
H       10.95797489      -1.52045272       4.90621433
H        8.92388856      -1.45011327       6.29255225
C       11.41215096      -3.14085495       2.81279061
C       12.41098225      -3.18353276       2.13829030
Br      14.02600796      -3.25253917       1.04768034
