125
Properties=species:S:1:pos:R:3 pbc="F F F"
C        0.00000000       0.00000000       0.00000000
C        0.91324073       0.91324073      -0.91324073
C        0.97897665       0.33871665      -2.32028173
C        1.85973559       1.21722103      -3.20158990
C        1.94955636       0.71880981      -4.64102505
C        2.91931764       1.58756111      -5.40071888
O        4.04903316       1.24703420      -5.72276983
O        2.38619708       2.82479457      -5.60473404
C        3.35594545       3.84073033      -5.87747420
C        4.02713111       4.29476498      -4.58132135
O        3.70616212       3.84314731      -3.48141815
C        5.08311698       5.34801031      -4.64313536
C        5.66044504       5.77701491      -3.43669059
C        6.63865105       6.77381815      -3.43050983
C        7.04499370       7.34485197      -4.63293663
Br       8.36436699       8.69770303      -4.63050000
C        6.48336223       6.92602236      -5.83906465
C        5.50215614       5.92820716      -5.84637770
H        1.89821664       0.94869635      -0.43891910
H        0.46945458       1.91306174      -0.90075537
H       -0.02787016       0.27392946      -2.75024340
H        1.38213440      -0.68091968      -2.29455481
H        2.86828566       1.26869704      -2.77129653
H        1.46552817       2.24135409      -3.19472566
H        0.97616856       0.73678255      -5.14272776
H        2.31408475      -0.31400776      -4.67477895
H        2.81240730       4.68985339      -6.30325494
H        4.09669003       3.49164461      -6.60408189
H        5.34794805       5.33786642      -2.48997058
H        7.07104708       7.09381534      -2.48566919
H        6.80283143       7.37149683      -6.77844529
H        5.08746301       5.62934412      -6.80449062
C       -0.91324073      -0.91324073      -0.91324073
C       -1.87438324      -1.71497986      -0.04861193
C       -2.75468227      -2.59659892      -0.92726532
C       -3.76868611      -3.41127908      -0.12942603
C       -4.51471060      -4.32222074      -1.07066630
O       -4.33538334      -5.52919486      -1.15425899
O       -5.35408620      -3.59841773      -1.86322177
C       -5.73967187      -4.26605645      -3.06842166
C       -4.61786193      -4.18198269      -4.10337282
O       -3.56845471      -3.57450944      -3.88776344
C       -4.81216510      -4.82630095      -5.43579659
C       -3.78394366      -4.70522023      -6.38498664
C       -3.91778891      -5.26983396      -7.65535615
C       -5.08153728      -5.96024856      -7.98099646
Br      -5.27065276      -6.72187507      -9.70004218
C       -6.10930366      -6.09193118      -7.04721440
C       -5.97686004      -5.52547414      -5.77440681
H       -0.24115018      -1.55910901      -1.48557289
H       -1.44167067      -0.24352967      -1.59807135
H       -2.50204148      -1.04000330       0.54574208
H       -1.31605066      -2.33922793       0.65950907
H       -2.12073705      -3.27664525      -1.51089693
H       -3.28415967      -1.96531651      -1.65213174
H       -4.48339261      -2.77181680       0.39953055
H       -3.26720468      -4.03046241       0.62281115
H       -6.61291807      -3.73407987      -3.45851769
H       -6.01605924      -5.30657326      -2.86978403
H       -2.86992734      -4.16513201      -6.14072570
H       -3.11143278      -5.16239950      -8.37669933
H       -7.01763613      -6.63323563      -7.30190179
H       -6.79850744      -5.64781117      -5.07497914
C       -0.91324073       0.91324073       0.91324073
C       -0.05189033       1.68318510       1.90289959
C       -0.93071298       2.56316264       2.78467089
C       -0.13145322       3.39161886       3.78631914
C       -1.08914415       4.14301791       4.67543558
O       -1.32716648       3.85229450       5.83937622
O       -1.70464171       5.13636705       3.97471694
C       -2.93228602       5.58633411       4.55552985
C       -4.05987620       4.60382388       4.23951736
O       -3.88471054       3.60411718       3.54189987
C       -5.43009661       4.88158085       4.76258519
C       -6.45918872       3.98558976       4.42937205
C       -7.76518679       4.20466872       4.87312350
C       -8.04686627       5.32142660       5.65448943
Br      -9.81303626       5.62603006       6.25350369
C       -7.03425258       6.21763823       5.99655843
C       -5.72549272       5.99985530       5.55139297
H       -1.62073886       0.24823549       1.41685774
H       -1.46010776       1.58153534       0.24162860
H        0.67615109       2.30474271       1.36771108
H        0.52011249       0.98732478       2.52855723
H       -1.64937430       1.93365682       3.32524811
H       -1.52140624       3.23312525       2.14707642
H        0.53679235       4.10301627       3.28945494
H        0.49051771       2.74744734       4.41792631
H       -3.16838267       6.54788233       4.08925063
H       -2.82603294       5.73088236       5.63550124
H       -6.24956659       3.10956568       3.81665278
H       -8.54804300       3.50066542       4.60182318
H       -7.25489640       7.08910576       6.60877140
H       -4.96443025       6.71994212       5.83692538
C        0.91324073      -0.91324073       0.91324073
C        2.38014763      -0.64713370       0.61069369
C        3.26179427      -1.52738186       1.48937038
C        4.75264249      -1.29384038       1.26290835
C        5.53467916      -2.27769748       2.09522100
O        6.11311837      -3.25803130       1.64768752
O        5.43717120      -1.96154459       3.41700990
C        5.72395298      -3.04981991       4.30037709
C        4.52219566      -3.99016132       4.39086046
O        3.46670617      -3.76735417       3.79666724
C        4.61485100      -5.20229502       5.25711662
C        3.48634092      -6.03280345       5.35500615
C        3.50733975      -7.16963046       6.16600881
C        4.65946378      -7.48151452       6.88180400
Br       4.69218285      -9.01548066       7.98490650
C        5.78901703      -6.66818709       6.79124512
C        5.76871080      -5.52808292       5.97994727
H        0.63318296      -1.94950463       0.70314450
H        0.66007646      -0.67313246       1.95006277
H        2.61770900       0.40886110       0.78745480
H        2.59174595      -0.85014923      -0.44612566
H        3.02632946      -2.58257533       1.29937444
H        3.01957726      -1.33902481       2.54300584
H        5.05300500      -0.27454896       1.52812490
H        5.01671050      -1.44755471       0.21059072
H        5.90062621      -2.61559123       5.28929819
H        6.62273064      -3.58771920       3.98196669
H        2.57897836      -5.79641657       4.80039011
H        2.62233771      -7.79790404       6.23028986
H        6.68957982      -6.91367983       7.34951391
H        6.66657995      -4.91885609       5.93586172
