133
Properties=species:S:1:pos:R:3 pbc="F F F"
C        0.00000000       0.00000000       0.00000000
C        0.91324073       0.91324073      -0.91324073
C        0.97897665       0.33871665      -2.32028173
C        1.85973559       1.21722103      -3.20158990
C        1.94955636       0.71880981      -4.64102505
C        2.91931764       1.58756111      -5.40071888
O        4.04903316       1.24703420      -5.72276983
O        2.38619708       2.82479457      -5.60473404
C        3.35594545       3.84073033      -5.87747420
C        4.02713111       4.29476498      -4.58132135
O        3.70616212       3.84314731      -3.48141815
C        5.08311698       5.34801031      -4.64313536
C        5.66044504       5.77701491      -3.43669059
C        6.63865105       6.77381815      -3.43050983
C        7.04499370       7.34485197      -4.63293663
C        6.48336223       6.92602236      -5.83906465
C        5.50215614       5.92820716      -5.84637770
H        1.89821664       0.94869635      -0.43891910
H        0.46945458       1.91306174      -0.90075537
H       -0.02787016       0.27392946      -2.75024340
H        1.38213440      -0.68091968      -2.29455481
H        2.86828566       1.26869704      -2.77129653
H        1.46552817       2.24135409      -3.19472566
H        0.97616856       0.73678255      -5.14272776
H        2.31408475      -0.31400776      -4.67477895
H        2.81240730       4.68985339      -6.30325494
H        4.09669003       3.49164461      -6.60408189
H        5.34794805       5.33786642      -2.48997058
H        7.07104708       7.09381534      -2.48566919
H        6.80283143       7.37149683      -6.77844529
H        5.08746301       5.62934412      -6.80449062
C        8.05039125       8.37576047      -4.63107985
C        8.89241170       9.23914633      -4.62952480
Br      10.25388754      10.63516825      -4.62701041
C       -0.91324073      -0.91324073      -0.91324073
C       -1.85778533      -1.73298498      -0.04720472
C       -2.73805498      -2.61462014      -0.92587140
C       -3.73599284      -3.44717209      -0.12622628
C       -4.48233501      -4.35617410      -1.06908852
O       -4.29196475      -5.56042171      -1.16645073
O       -5.33664684      -3.63298570      -1.84609315
C       -5.72760952      -4.29252103      -3.05401943
C       -4.61703693      -4.18709474      -4.09908577
O       -3.57157254      -3.57136266      -3.88779238
C       -4.81823167      -4.82015486      -5.43587611
C       -3.80074961      -4.67950157      -6.39389935
C       -3.94166019      -5.23287478      -7.66844405
C       -5.10173221      -5.93159375      -7.98945633
C       -6.11880812      -6.08269156      -7.04694955
C       -5.97929294      -5.52751319      -5.76993486
H       -0.24054765      -1.54671836      -1.49856608
H       -1.45503243      -0.24210613      -1.58613313
H       -2.48611812      -1.07017676       0.55999218
H       -1.28631010      -2.35859298       0.64913355
H       -2.10327917      -3.28254072      -1.52245935
H       -3.28091380      -1.98152635      -1.63916776
H       -4.45166621      -2.82009654       0.41608389
H       -3.22097408      -4.06871626       0.61483440
H       -6.60989361      -3.76544277      -3.43017925
H       -5.99174081      -5.33764338      -2.86303235
H       -2.88971378      -4.13277752      -6.15329375
H       -3.14361988      -5.11031922      -8.39659250
H       -7.02425244      -6.63047242      -7.29804869
H       -6.79269427      -5.66490610      -5.06369739
C       -5.25314618      -6.50044343      -9.30364196
C       -5.37995537      -6.97685503     -10.40427242
Br      -5.58499512      -7.74717230     -12.18389879
C       -0.91324073       0.91324073       0.91324073
C       -0.06377788       1.60637595       1.96782119
C       -0.94267725       2.48623354       2.84963572
C       -0.15335935       3.23989178       3.91614009
C       -1.11644747       3.99438019       4.79676997
O       -1.41423710       3.66748281       5.93711728
O       -1.66194377       5.03977629       4.11400564
C       -2.89374370       5.51693121       4.66347507
C       -4.04559593       4.59572494       4.26189657
O       -3.88164742       3.61830641       3.53077375
C       -5.42421832       4.90921332       4.74083100
C       -6.47355724       4.07096319       4.32963010
C       -7.78710606       4.32636841       4.72950455
C       -8.05619747       5.42173163       5.54485320
C       -7.02366984       6.26053455       5.96424484
C       -5.70725303       6.00636465       5.56312331
H       -1.66716951       0.25868952       1.35997305
H       -1.40444434       1.63009922       0.24872813
H        0.71023731       2.21795919       1.48858082
H        0.45333229       0.86278902       2.58631278
H       -1.70787081       1.86610861       3.33429981
H       -1.47898543       3.20522307       2.21739942
H        0.56295768       3.94212396       3.47651258
H        0.41545608       2.54558577       4.54472625
H       -3.07152078       6.50537782       4.22861703
H       -2.82691158       5.61358430       5.75192064
H       -6.27379950       3.21218605       3.68979950
H       -8.58551818       3.66704062       4.39797280
H       -7.23459211       7.11524256       6.60293889
H       -4.93054790       6.68208814       5.90866172
C       -9.40955839       5.69130558       5.95636760
C      -10.54299816       5.91707376       6.30101090
Br     -12.37567442       6.28212182       6.85826997
C        0.91324073      -0.91324073       0.91324073
C        2.38015433      -0.61101510       0.64680560
C        3.26183244      -1.49120199       1.52551209
C        4.75180307      -1.22262433       1.33496382
C        5.53701759      -2.20744280       2.16313725
O        6.14476121      -3.16623608       1.70783990
O        5.40599687      -1.92094497       3.48878385
C        5.69730026      -3.02130562       4.35554410
C        4.51379379      -3.98765198       4.40177168
O        3.46623590      -3.77409900       3.79039268
C        4.61398221      -5.21542281       5.24485762
C        3.50125304      -6.07064265       5.30225484
C        3.52937424      -7.22345000       6.09015478
C        4.67289982      -7.52660314       6.82327934
C        5.78688000      -6.68868840       6.77288084
C        5.75938886      -5.53258501       5.98476712
H        0.65917275      -1.95040219       0.67625714
H        0.63402812      -0.69999564       1.94924793
H        2.59201315       0.44569613       0.84998567
H        2.61745408      -0.78761479      -0.40929935
H        3.05232263      -2.54679378       1.30916283
H        2.99429729      -1.32981295       2.57749767
H        5.02539602      -0.20316193       1.62712092
H        5.04043148      -1.34896699       0.28545748
H        5.84467648      -2.60425473       5.35658442
H        6.61339624      -3.53400591       4.04501439
H        2.60066875      -5.84131775       4.73379855
H        2.65652302      -7.87085252       6.12315606
H        6.68078254      -6.92733011       7.34466090
H        6.64508638      -4.90437925       5.97183213
C        4.70501808      -8.71202892       7.64018457
C        4.73191712      -9.70482300       8.32434270
Br       4.77541060     -11.31008707       9.43056853
