145
Properties=species:S:1:pos:R:3 pbc="F F F"
C        0.00000000       0.00000000       0.00000000
O        2.63601492       5.45878562      -5.14661729
C        2.82214962       5.70879624      -3.95946112
N        3.20003097       4.76700448      -3.03177594
C        3.36779452       3.37319127      -3.36619608
C        2.50117450       2.50085113      -2.49278660
C        1.10432563       2.64022585      -2.51620633
C        0.29642655       1.83631148      -1.70990518
C        0.88177772       0.88177772      -0.88177772
C        2.26576153       0.72338235      -0.85302147
C        3.07349778       1.53140947      -1.65683999
C        2.64853970       7.11538164      -3.38963040
O        1.39403901       7.28851993      -2.72987480
C        1.34573887       6.85465545      -1.44812814
O        2.25884952       6.31059497      -0.84517093
C        0.02736102       7.18724319      -0.84774967
C       -1.09223308       7.49173284      -1.63571175
C       -2.30579562       7.83036449      -1.03038686
C       -2.40035098       7.86354734       0.36037247
C       -1.29694626       7.54912566       1.15302400
C       -0.08365462       7.20484489       0.54955097
H        3.21429708       5.03150854      -2.04830718
H        4.42742567       3.14102576      -3.21271957
H        3.13750788       3.18169468      -4.41984591
H        0.64202877       3.38044146      -3.16714722
H       -0.78239671       1.96139931      -1.73803376
H        2.72541706      -0.02391040      -0.21114483
H        4.15283863       1.39745205      -1.62523662
H        2.68328454       7.82488695      -4.22270817
H        3.48924561       7.36590079      -2.73091748
H       -1.03446140       7.47087610      -2.72139600
H       -3.16636325       8.07000532      -1.65053908
H       -1.36846805       7.57294967       2.23768808
H        0.77510883       6.96507375       1.17224275
C       -3.64643363       8.22953628       0.98240954
C       -4.69002785       8.53605202       1.50336559
Br      -6.37743144       9.03166204       2.34570745
O       -2.67971345      -4.90740822      -5.65429615
C       -2.55973409      -5.39594341      -4.53472948
N       -2.88887541      -4.73506480      -3.37487118
C       -3.36650406      -3.37326010      -3.36741769
C       -2.49943002      -2.50233600      -2.49304620
C       -1.13794510      -2.33217084      -2.79064187
C       -0.32968979      -1.52781969      -1.98513372
C       -0.88177772      -0.88177772      -0.88177772
C       -2.23309466      -1.03184235      -0.57722833
C       -3.03993856      -1.84054567      -1.38126301
C       -2.02369423      -6.81008140      -4.31977612
O       -0.64634105      -6.82282953      -3.94326316
C       -0.40083987      -6.62057616      -2.62710643
O       -1.24413972      -6.39976844      -1.77070725
C        1.05311934      -6.76238017      -2.35309304
C        2.01302646      -6.67620377      -3.37203419
C        3.36840513      -6.84719099      -3.07616987
C        3.76372942      -7.10286341      -1.76368991
C        2.81864041      -7.17684393      -0.74095189
C        1.46292820      -7.00069605      -1.03387145
H       -2.64496609      -5.16486770      -2.48427900
H       -4.39235730      -3.40468645      -2.98412724
H       -3.40512415      -2.95489434      -4.37902998
H       -0.70365044      -2.82982557      -3.65614144
H        0.72272659      -1.41139504      -2.22836791
H       -2.66804021      -0.52523001       0.28061873
H       -4.09366277      -1.94916971      -1.13269482
H       -2.11144534      -7.35299883      -5.26643549
H       -2.64599759      -7.34692036      -3.59314593
H        1.72071863      -6.47801956      -4.40050977
H        4.10410109      -6.78378634      -3.87449589
H        3.12446067      -7.37474723       0.28349301
H        0.72948812      -7.06403379      -0.23339416
C        5.15874284      -7.29608449      -1.46335145
C        6.32706657      -7.45790715      -1.21181800
Br       8.21614724      -7.71956071      -0.80510968
O       -4.01743044       6.12094459       3.10304279
C       -4.69273249       5.27880343       2.51887105
N       -4.46700106       3.92538364       2.60642669
C       -3.37248430       3.36950384       3.36519373
C       -2.50360990       2.49450431       2.49669802
C       -1.84129294       3.03599733       1.38346754
C       -1.03596703       2.23151108       0.57516510
C       -0.88177772       0.88177772       0.88177772
C       -1.52405360       0.32988685       1.98822490
C       -2.33326945       1.13474896       2.79372883
C       -5.86932136       5.66128251       1.62294787
O       -5.52961624       5.64674212       0.23607538
C       -5.57776545       4.43302223      -0.36226521
O       -5.84821800       3.37679132       0.18960609
C       -5.30760979       4.57196620      -1.81722211
C       -4.67970723       5.70672363      -2.35121936
C       -4.47304635       5.81157737      -3.72966800
C       -4.89241568       4.78329468      -4.57288647
C       -5.50529090       3.64466739      -4.05080288
C       -5.70802346       3.53538217      -2.67176633
H       -4.99445944       3.30387493       1.99577842
H       -3.82047905       2.78463355       4.17605840
H       -2.76112129       4.15437639       3.82355079
H       -1.95348934       4.09213453       1.14399359
H       -0.53473249       2.66701923      -0.28471536
H       -1.40203378      -0.72225170       2.23286940
H       -2.82903269       0.69154198       3.65495262
H       -6.17082232       6.68250626       1.87755109
H       -6.73322731       5.01893283       1.83390374
H       -4.34747809       6.51733609      -1.70700348
H       -3.99010693       6.69807485      -4.13400064
H       -5.83198262       2.84086760      -4.70605667
H       -6.19069001       2.64742519      -2.27017537
C       -4.69452811       4.90056093      -5.99439593
C       -4.52879727       4.99877141      -7.18491010
Br      -4.26082451       5.15756946      -9.10987082
O        3.32557086      -3.73049680       6.18535017
C        2.59903487      -4.41766525       5.47370686
N        2.56896827      -4.32777059       4.10207253
C        3.36495970      -3.37201786       3.37020430
C        2.49583763      -2.50374676       2.49522783
C        1.50927162      -1.68458081       3.06690538
C        0.70108273      -0.87887484       2.26268563
C        0.88177772      -0.88177772       0.88177772
C        1.86241542      -1.68136136       0.29838856
C        2.66751181      -2.49060127       1.10363416
C        1.64198724      -5.45675719       6.05480730
O        0.29808702      -4.98059875       6.13374797
C       -0.42243433      -5.07937276       4.99158403
O       -0.00811632      -5.50077112       3.92196061
C       -1.82458223      -4.65103035       5.23590576
C       -2.18025096      -3.87014166       6.34532081
C       -3.51593567      -3.51561542       6.55527598
C       -4.49439294      -3.94009913       5.65711771
C       -4.14953292      -4.70524823       4.54344009
C       -2.81335420      -5.05635173       4.32864177
H        1.85227160      -4.84545832       3.59638287
H        4.06737394      -3.95214708       2.76164998
H        3.95515330      -2.74067186       4.04322331
H        1.36910078      -1.67398110       4.14653557
H       -0.06016046      -0.25479869       2.72239813
H        2.00902024      -1.68238764      -0.77875639
H        3.42980736      -3.11010439       0.63561555
H        1.97021170      -5.68712462       7.07354334
H        1.70597565      -6.39316585       5.48692237
H       -1.42907936      -3.53181116       7.05507891
H       -3.78177570      -2.91439329       7.42156356
H       -4.91043467      -5.03634325       3.84088497
H       -2.55035313      -5.65715940       3.46113357
C       -5.87227785      -3.58874043       5.88423054
C       -7.02625647      -3.29447751       6.07443753
Br      -8.89214228      -2.81867927       6.38198616
