166
Properties=species:S:1:pos:R:3 pbc="F F F"
O        3.54591894       6.36868964      -6.05652131
C        3.73205365       6.61870026      -4.86936514
N        4.10993499       5.67690851      -3.94167997
C        4.27769854       4.28309529      -4.27610011
C        3.41107852       3.41075515      -3.40269062
C        2.01422966       3.55012988      -3.42611035
C        1.20633058       2.74621550      -2.61980921
C        1.79168174       1.79168174      -1.79168174
C        3.17566555       1.63328637      -1.76292549
C        3.98340180       2.44131349      -2.56674402
C        3.55844373       8.02528566      -4.29953442
O        2.30394303       8.19842395      -3.63977883
C        2.25564290       7.76455947      -2.35803217
O        3.16875354       7.22049899      -1.75507496
C        0.93726504       8.09714721      -1.75765369
C       -0.18232905       8.40163686      -2.54561577
C       -1.39589160       8.74026852      -1.94029088
C       -1.49044695       8.77345136      -0.54953155
C       -0.38704223       8.45902969       0.24311998
C        0.82624941       8.11474891      -0.36035305
H        4.12420110       5.94141256      -2.95821120
H        5.33732970       4.05092978      -4.12262359
H        4.04741190       4.09159871      -5.32974994
H        1.55193280       4.29034548      -4.07705124
H        0.12750731       2.87130334      -2.64793779
H        3.63532108       0.88599362      -1.12104886
H        5.06274265       2.30735608      -2.53514064
H        3.59318857       8.73479098      -5.13261219
H        4.39914963       8.27580482      -3.64082150
H       -0.12455737       8.38078013      -3.63130002
H       -2.25645923       8.97990935      -2.56044310
H       -0.45856402       8.48285369       1.32778405
H        1.68501285       7.87497778       0.26233872
C       -2.73652960       9.13944030       0.07250552
C       -3.78012382       9.44595604       0.59346156
Br      -5.46752742       9.94156607       1.43580343
O       -5.20415394      -3.83945180      -6.92752416
C       -4.10967937      -4.36447742      -6.74596225
N       -3.59080635      -4.63575788      -5.50195924
C       -4.27497145      -4.27974623      -4.28217625
C       -3.40342248      -3.41292680      -3.40817502
C       -2.95873938      -2.16329554      -3.86843496
C       -2.15138738      -1.35626294      -3.06470496
C       -1.79168174      -1.79168174      -1.79168174
C       -2.23186897      -3.02478683      -1.31522162
C       -3.03592666      -3.83352361      -2.12200904
C       -3.20375182      -4.77375949      -7.90575250
O       -2.16575454      -3.82453762      -8.15185365
C       -1.07015660      -3.94303401      -7.36504392
O       -0.92443694      -4.75573887      -6.46415168
C       -0.03000192      -2.97066960      -7.79139444
C       -0.33776196      -1.85025117      -8.57691045
C        0.67579831      -0.97752210      -8.98294401
C        1.99474834      -1.22378535      -8.60349896
C        2.30955196      -2.32728634      -7.81113310
C        1.29647029      -3.19844122      -7.39938044
H       -2.62731854      -4.95955161      -5.43695472
H       -4.51659166      -5.21995497      -3.77433645
H       -5.21908380      -3.76321802      -4.48645873
H       -3.24314581      -1.81588994      -4.86029378
H       -1.81314871      -0.39422575      -3.43937397
H       -1.95664086      -3.36545375      -0.32026895
H       -3.37318398      -4.79409008      -1.73796531
H       -3.81756053      -4.83262562      -8.81040559
H       -2.79955078      -5.77949417      -7.73673101
H       -1.36123331      -1.64478952      -8.88149994
H        0.42718472      -0.11469280      -9.59638514
H        3.33704344      -2.52075912      -7.51278994
H        1.54795473      -4.06015712      -6.78544952
C        3.04016948      -0.33346271      -9.03711196
C        3.91570968       0.41218251      -9.40026285
Br       5.33138414       1.61782775      -9.98744712
O       -5.36485076       3.75604599       6.85023314
C       -4.23713265       4.23057167       6.75241473
N       -3.63973247       4.53636377       5.55242722
C       -4.27511368       4.27936928       4.28241098
C       -3.40319518       3.41266100       3.40866812
C       -3.04735827       2.11947156       3.82364006
C       -2.24018292       1.31225508       3.01991728
C       -1.79168174       1.79168174       1.79168174
C       -2.14300769       3.06896891       1.35990082
C       -2.94697423       3.87755514       2.16692995
C       -3.37470181       4.53192013       7.97664188
O       -2.40057081       3.51756984       8.22400516
C       -1.26005814       3.61718776       7.50098864
O       -1.02570897       4.46546855       6.65314997
C       -0.29453966       2.57053402       7.92699227
C       -0.69990031       1.42982525       8.63519802
C        0.24521179       0.48498042       9.04489917
C        1.59324660       0.67954635       8.74623621
C        2.00514156       1.80335452       8.03065452
C        1.06073164       2.74689294       7.61519008
H       -2.65902095       4.81128274       5.55352117
H       -4.44153867       5.25556608       3.81377832
H       -5.25365513       3.80416621       4.41093921
H       -3.40134945       1.73802054       4.77995953
H       -1.97141445       0.31587519       3.35945880
H       -1.79834591       3.44434433       0.39967333
H       -3.21433931       4.87288976       1.81801029
H       -4.03203487       4.57758585       8.85097102
H       -2.91177145       5.52196777       7.88203673
H       -1.74720702       1.26400524       8.87631051
H       -0.07898574      -0.39328691       9.59819439
H        3.05551924       1.95668837       7.79533649
H        1.38776209       3.62392181       7.06149219
C        2.56777654      -0.28593422       9.18411594
C        3.38394536      -1.09452420       9.55084022
Br       4.70362132      -2.40194581      10.14380235
O        3.61883726      -6.63963823       5.71265440
C        3.96339888      -6.71939841       4.53732176
N        4.32164279      -5.63467564       3.77220504
C        4.27853938      -4.28282417       4.27553039
C        3.41195818      -3.40972506       3.40284106
C        2.04888062      -3.70320897       3.23838029
C        1.24129782      -2.89943705       2.43162041
C        1.79168174      -1.79168174       1.79168174
C        3.14030971      -1.48019011       1.95137759
C        3.94851132      -2.28773005       2.75521794
C        4.02811851      -8.05545354       3.79969176
O        2.88449592      -8.28237365       2.97527624
C        2.92386038      -7.70166766       1.75270650
O        3.82345176      -6.99059890       1.33027683
C        1.73039271      -8.10017727       0.96149597
C        0.57731964      -8.62041298       1.56719096
C       -0.51148193      -9.01278307       0.78336665
C       -0.44818467      -8.88434752      -0.60362689
C        0.68821008      -8.35551235      -1.21485495
C        1.77625073      -7.95737188      -0.43227124
H        4.47614996      -5.77269366       2.77498125
H        5.31183532      -3.91874889       4.28029886
H        3.91228373      -4.24915008       5.30732674
H        1.61285548      -4.56424085       3.74223319
H        0.18960787      -3.14454672       2.31259384
H        3.57186319      -0.61358560       1.45691477
H        4.99999876      -2.03338709       2.87185352
H        4.05856663      -8.85417114       4.54785396
H        4.96040946      -8.12913261       3.22623388
H        0.51270745      -8.72741171       2.64740362
H       -1.39868120      -9.41996603       1.26260839
H        0.73951479      -8.25307342      -2.29608259
H        2.66193288      -7.54994498      -0.91422595
C       -1.56385432      -9.30520373      -1.41094422
C       -2.49822766      -9.65767080      -2.08707249
Br      -4.00903032     -10.22758025      -3.18031471
C       -0.00445707       0.01189536      -1.78238275
H       -0.66409135       0.67374010      -2.43557963
H        0.65740317      -0.63156657      -2.45157240
C       -0.90989263      -0.90692880      -0.91072765
C        0.90977584       0.90977584      -0.90977584
C       -0.00465871       1.77757030       0.00794375
H       -0.66225468       2.44313916      -0.64384735
H        0.64322798       2.43503045       0.67728295
C       -1.78241447       0.00034974      -0.00472694
H       -2.45427497      -0.65498947       0.64260836
H       -2.43311707       0.67328779      -0.65473579
C       -0.91132561       0.90220522       0.91563759
C       -0.01476271      -0.02253852       1.78660255
H       -0.67934791      -0.69751639       2.42135241
H        0.63392994       0.61504881       2.47327442
C        0.01484550      -1.77751727      -0.01636693
H        0.67870853      -2.42144646      -0.68295456
H       -0.62264859      -2.45592969       0.64226336
C        1.78714474       0.01002794       0.00389507
H        2.44202412       0.67113390       0.66197326
H        2.45385902      -0.65136977      -0.64189061
C        0.91606151      -0.90478549       0.90901405
