158
Properties=species:S:1:pos:R:3 pbc="F F F"
O        3.54591894       6.36868964      -6.05652131
C        3.73205365       6.61870026      -4.86936514
N        4.10993499       5.67690851      -3.94167997
C        4.27769854       4.28309529      -4.27610011
C        3.41107852       3.41075515      -3.40269062
C        2.01422966       3.55012988      -3.42611035
C        1.20633058       2.74621550      -2.61980921
C        1.79168174       1.79168174      -1.79168174
C        3.17566555       1.63328637      -1.76292549
C        3.98340180       2.44131349      -2.56674402
C        3.55844373       8.02528566      -4.29953442
O        2.30394303       8.19842395      -3.63977883
C        2.25564290       7.76455947      -2.35803217
O        3.16875354       7.22049899      -1.75507496
C        0.93726504       8.09714721      -1.75765369
C       -0.18232905       8.40163686      -2.54561577
C       -1.39589160       8.74026852      -1.94029088
C       -1.49044695       8.77345136      -0.54953155
Br      -3.12635397       9.25393625       0.26710353
C       -0.38704223       8.45902969       0.24311998
C        0.82624941       8.11474891      -0.36035305
H        4.12420110       5.94141256      -2.95821120
H        5.33732970       4.05092978      -4.12262359
H        4.04741190       4.09159871      -5.32974994
H        1.55193280       4.29034548      -4.07705124
H        0.12750731       2.87130334      -2.64793779
H        3.63532108       0.88599362      -1.12104886
H        5.06274265       2.30735608      -2.53514064
H        3.59318857       8.73479098      -5.13261219
H        4.39914963       8.27580482      -3.64082150
H       -0.12455737       8.38078013      -3.63130002
H       -2.25645923       8.97990935      -2.56044310
H       -0.45856402       8.48285369       1.32778405
H        1.68501285       7.87497778       0.26233872
O       -3.53950618      -6.30084484      -6.13077887
C       -3.68697537      -6.58682957      -4.94631411
N       -4.06430370      -5.68021377      -3.98400600
C       -4.27751394      -4.28313340      -4.27624660
C       -3.41086107      -3.41097538      -3.40268784
C       -2.01197498      -3.51201261      -3.46648229
C       -1.20401443      -2.70805351      -2.66028735
C       -1.79168174      -1.79168174      -1.79168174
C       -3.17806702      -1.67143076      -1.72237964
C       -3.98569011      -2.47956043      -2.52620877
C       -3.46124703      -8.00269007      -4.41932672
O       -2.18532130      -8.15921982      -3.79760469
C       -2.11391052      -7.75797930      -2.50634472
O       -3.02440457      -7.25471309      -1.86520982
C       -0.77157003      -8.07056785      -1.94992807
C        0.33399475      -8.32401849      -2.77489984
C        1.57188579      -8.64559967      -2.21095393
C        1.70470531      -8.71268961      -0.82455166
Br       3.37405455      -9.17019004      -0.06434326
C        0.61518427      -8.44900089       0.00494914
C       -0.62253434      -8.12181587      -0.55700116
H       -4.04513207      -5.97070993      -3.00798286
H       -5.33835135      -4.08369907      -4.08883265
H       -4.08079325      -4.05793375      -5.33003355
H       -1.54812362      -4.22217959      -4.14902632
H       -0.12343066      -2.80325659      -2.72006118
H       -3.63970869      -0.95388275      -1.04877211
H       -5.06693014      -2.37559912      -2.46271012
H       -3.49979738      -8.69077932      -5.27001504
H       -4.27704515      -8.29295389      -3.74577692
H        0.24647352      -8.27625681      -3.85773949
H        2.42142638      -8.84562571      -2.85969388
H        0.71649624      -8.49933063       1.08632877
H       -1.47020703      -7.92167762       0.09423275
O       -6.62357426       5.73563119       3.61192445
C       -6.71488334       4.55836196       3.94687374
N       -5.63876879       3.78227691       4.30747776
C       -4.28284675       4.27556333       4.27848386
C       -3.40979438       3.40282451       3.41190541
C       -3.69408659       3.25096094       2.04542235
C       -2.89030821       2.44423016       1.23781692
C       -1.79168174       1.79168174       1.79168174
C       -1.48930851       1.93875263       3.14381627
C       -2.29688159       2.74258817       3.95198955
C       -8.05695324       3.83049968       3.99581090
O       -8.28137155       3.01654536       2.84422890
C       -7.71027758       1.78930753       2.87864942
O       -7.00933429       1.35463881       3.78035439
C       -8.10564233       1.01024658       1.67617704
C       -8.61243474       1.62863431       0.52385452
C       -9.00240460       0.85611795      -0.57385475
C       -8.88498554      -0.53225750      -0.52019207
Br      -9.43431339      -1.57673496      -1.99709969
C       -8.36950862      -1.15611718       0.61547604
C       -7.97377232      -0.38487970       1.71245875
H       -5.78552755       2.78499387       4.45330345
H       -3.92665742       4.26970660       5.31451905
H       -4.23854442       5.30982160       3.92039453
H       -4.54791106       3.76467713       1.60674133
H       -3.12826522       2.33506533       0.18341789
H       -0.62980630       1.43441729       3.57813997
H       -2.04970842       2.84929308       5.00623787
H       -8.85017997       4.58449473       4.02591704
H       -8.14210833       3.25056386       4.92310376
H       -8.71073614       2.71009275       0.46669389
H       -9.39914336       1.34517778      -1.46042793
H       -8.27567270      -2.23845469       0.65928760
H       -7.57679860      -0.87664269       2.59749599
O        6.99322762      -5.04058605       3.93731623
C        6.72532670      -3.98723594       4.50755641
N        5.44251038      -3.54896482       4.73704826
C        4.28190893      -4.27485929       4.28012572
C        3.40767004      -3.40369512       3.41315914
C        3.90699974      -2.86830365       2.21516649
C        3.10324296      -2.06078175       1.40833056
C        1.79168174      -1.79168174       1.79168174
C        1.27680715      -2.32252644       2.97254383
C        2.08334486      -3.12669818       3.78141627
C        7.81125377      -3.04621478       5.02579527
O        8.04913097      -1.94664961       4.14636523
C        7.19865785      -0.90130645       4.27827024
O        6.25033474      -0.84692100       5.04707175
C        7.61735367       0.21099439       3.38570666
C        8.47537983       0.00584468       2.29538844
C        8.87011392       1.08514084       1.49969473
C        8.40706221       2.36730286       1.79277662
Br       8.96030280       3.82908826       0.72926420
C        7.54269632       2.58004475       2.86621591
C        7.14231461       1.50101591       3.66005267
H        5.30838917      -2.60922638       5.10620932
H        3.74006015      -4.59334514       5.17747778
H        4.56382495      -5.17756100       3.72737459
H        4.92953286      -3.08165938       1.90813729
H        3.50815641      -1.65164736       0.48694467
H        0.25203808      -2.11811551       3.27220997
H        1.66910575      -3.53525863       4.70087500
H        8.74378426      -3.61471163       5.10209585
H        7.56864871      -2.70675780       6.04036943
H        8.84556028      -0.98777149       2.05419101
H        9.54000391       0.91602044       0.65990974
H        7.17914527       3.57864666       3.09600701
H        6.47183720       1.67303446       4.49884917
C       -0.00445707       0.01189536      -1.78238275
H       -0.66409135       0.67374010      -2.43557963
H        0.65740317      -0.63156657      -2.45157240
C       -0.90989263      -0.90692880      -0.91072765
C        0.90977584       0.90977584      -0.90977584
C       -0.00465871       1.77757030       0.00794375
H       -0.66225468       2.44313916      -0.64384735
H        0.64322798       2.43503045       0.67728295
C       -1.78241447       0.00034974      -0.00472694
H       -2.45427497      -0.65498947       0.64260836
H       -2.43311707       0.67328779      -0.65473579
C       -0.91132561       0.90220522       0.91563759
C       -0.01476271      -0.02253852       1.78660255
H       -0.67934791      -0.69751639       2.42135241
H        0.63392994       0.61504881       2.47327442
C        0.01484550      -1.77751727      -0.01636693
H        0.67870853      -2.42144646      -0.68295456
H       -0.62264859      -2.45592969       0.64226336
C        1.78714474       0.01002794       0.00389507
H        2.44202412       0.67113390       0.66197326
H        2.45385902      -0.65136977      -0.64189061
C        0.91606151      -0.90478549       0.90901405
