137
Properties=species:S:1:pos:R:3 pbc="F F F"
C        0.00000000       0.00000000       0.00000000
O        2.63601492       5.45878562      -5.14661729
C        2.82214962       5.70879624      -3.95946112
N        3.20003097       4.76700448      -3.03177594
C        3.36779452       3.37319127      -3.36619608
C        2.50117450       2.50085113      -2.49278660
C        1.10432563       2.64022585      -2.51620633
C        0.29642655       1.83631148      -1.70990518
C        0.88177772       0.88177772      -0.88177772
C        2.26576153       0.72338235      -0.85302147
C        3.07349778       1.53140947      -1.65683999
C        2.64853970       7.11538164      -3.38963040
O        1.39403901       7.28851993      -2.72987480
C        1.34573887       6.85465545      -1.44812814
O        2.25884952       6.31059497      -0.84517093
C        0.02736102       7.18724319      -0.84774967
C       -1.09223308       7.49173284      -1.63571175
C       -2.30579562       7.83036449      -1.03038686
C       -2.40035098       7.86354734       0.36037247
Br      -4.03625800       8.34403222       1.17700755
C       -1.29694626       7.54912566       1.15302400
C       -0.08365462       7.20484489       0.54955097
H        3.21429708       5.03150854      -2.04830718
H        4.42742567       3.14102576      -3.21271957
H        3.13750788       3.18169468      -4.41984591
H        0.64202877       3.38044146      -3.16714722
H       -0.78239671       1.96139931      -1.73803376
H        2.72541706      -0.02391040      -0.21114483
H        4.15283863       1.39745205      -1.62523662
H        2.68328454       7.82488695      -4.22270817
H        3.48924561       7.36590079      -2.73091748
H       -1.03446140       7.47087610      -2.72139600
H       -3.16636325       8.07000532      -1.65053908
H       -1.36846805       7.57294967       2.23768808
H        0.77510883       6.96507375       1.17224275
O       -5.13308584      -5.47076236      -2.63756962
C       -5.53762403      -4.31195717      -2.64082578
N       -4.76302480      -3.23466836      -3.00111823
C       -3.37329291      -3.36690983      -3.36697912
C       -2.50180545      -2.49286850      -2.50013827
C       -2.45782026      -2.69190362      -1.11103393
C       -1.65366643      -1.88608865      -0.30288813
C       -0.88177772      -0.88177772      -0.88177772
C       -0.90598044      -0.67650812      -2.25967678
C       -1.71444680      -1.48042142      -3.06687901
C       -6.96584279      -3.95006002      -2.23764893
O       -7.05067196      -3.46416299      -0.89759878
C       -6.76210839      -2.15122771      -0.73518636
O       -6.41109127      -1.38417393      -1.61935022
C       -6.98915188      -1.75146057       0.67825857
C       -7.05676515      -2.69353417       1.71508781
C       -7.30372984      -2.27780050       3.02657461
C       -7.48177499      -0.92242747       3.30137857
Br      -7.83841121      -0.36444466       5.07208920
C       -7.40283586       0.02370425       2.27997620
C       -7.15048006      -0.38951290       0.96835367
H       -5.13680215      -2.29786779      -2.85944285
H       -3.29744328      -3.06603642      -4.41769130
H       -3.03587560      -4.40665301      -3.29651986
H       -3.05433804      -3.48028937      -0.65499004
H       -1.63574749      -2.05193335       0.77064448
H       -0.30112555       0.10355274      -2.71507868
H       -1.72408607      -1.30995996      -4.14148127
H       -7.57505527      -4.85770951      -2.29811489
H       -7.39477981      -3.23789533      -2.95338873
H       -6.92069691      -3.75405604       1.51694225
H       -7.35957467      -3.01691232       3.82230585
H       -7.53995360       1.08128481       2.49187525
H       -7.09456358       0.35191358       0.17471016
O       -4.66636342       2.75555821       5.81949619
C       -3.50566794       3.15450932       5.83022972
N       -2.80594731       3.49587228       4.69699180
C       -3.36544491       3.36896312       3.37277384
C       -2.49305305       2.50235090       2.49940828
C       -2.25369861       1.16263639       2.84442281
C       -1.44677032       0.35519198       2.04068091
C       -0.88177772       0.88177772       0.88177772
C       -1.11650351       2.20645603       0.51920581
C       -1.92038156       3.01481820       1.32654749
C       -2.71401635       3.31252121       7.12701418
O       -1.82898753       2.21765357       7.36579264
C       -0.63608332       2.28386071       6.72857844
O       -0.28678638       3.16758970       5.96023934
C        0.22559678       1.14564781       7.14230285
C       -0.30334769      -0.00780711       7.73967093
C        0.54590231      -1.04216811       8.14302615
C        1.92159573      -0.92418310       7.94860272
Br       3.07055645      -2.31427509       8.51559822
C        2.45644915       0.21247553       7.34312903
C        1.60821958       1.24586735       6.93399153
H       -1.81175616       3.70002273       4.78233390
H       -3.43342399       4.38331504       2.96443197
H       -4.37988264       2.95675155       3.40241429
H       -2.69890837       0.74484355       3.74586554
H       -1.26912636      -0.67796175       2.32587175
H       -0.68070418       2.61912026      -0.38717295
H       -2.09603410       4.04745188       1.03204132
H       -3.42712011       3.34672320       7.95703636
H       -2.18115143       4.27140693       7.13350551
H       -1.37375369      -0.11466123       7.89871825
H        0.12604262      -1.92992322       8.61014698
H        3.52867663       0.30630196       7.18916822
H        2.03084556       2.13221592       6.46656947
O        4.46598166      -5.93456204       2.84087412
C        5.07457873      -4.92930917       2.48651908
N        4.63206023      -3.64837728       2.71837389
C        3.37299801      -3.36843660       3.36574726
C        2.50312319      -2.49362566       2.49806337
C        2.08781773      -2.93967710       1.23326297
C        1.28302043      -2.13471152       0.42491126
C        0.88177772      -0.88177772       0.88177772
C        1.27676276      -0.42717964       2.13822294
C        2.08580039      -1.23155851       2.94438833
C        6.40544468      -5.00727376       1.74083330
O        6.25632211      -4.82347047       0.33264115
C        6.19534586      -3.53626575      -0.08308914
O        6.22242183      -2.55180085       0.64039273
C        6.14720965      -3.48282631      -1.56768209
C        5.78004643      -4.59476911      -2.33960403
C        5.77853213      -4.51132641      -3.73490282
C        6.14243473      -3.31796933      -4.35758017
Br       6.16181399      -3.21406530      -6.24511262
C        6.49588387      -2.20240288      -3.59913135
C        6.49278733      -2.28212503      -2.20327307
H        5.13370246      -2.87476230       2.28564803
H        3.61227178      -2.86173165       4.30716757
H        2.83494488      -4.28956872       3.61453487
H        2.39344792      -3.92127105       0.87489849
H        0.97503727      -2.49474745      -0.55274835
H        0.96144538       0.54838385       2.49958995
H        2.38705473      -0.86492763       3.92354494
H        6.82481931      -6.00596494       1.90009542
H        7.12319662      -4.29561947       2.16724779
H        5.49432219      -5.53255133      -1.86906281
H        5.49740869      -5.38097497      -4.32420252
H        6.77872187      -1.27031859      -4.08224691
H        6.77378437      -1.41065933      -1.61650386
