146
Properties=species:S:1:pos:R:3 pbc="F F F"
O        5.25814231       6.38877414      -5.81150133
C        4.05165322       6.15627199      -5.81782281
N        3.48216137       5.13767462      -5.09082622
C        4.28957920       4.27001889      -4.27019479
C        3.42578053       3.39768885      -3.39936953
C        2.96832299       3.86580008      -2.15846311
C        2.15780151       3.06248936      -1.35331631
C        1.79172003       1.79172003      -1.79172003
C        2.22332115       1.31942713      -3.02952515
C        3.03498350       2.12270058      -3.83325068
C        3.07622321       6.95972263      -6.67918688
O        1.69647435       6.69870625      -6.42027846
C        1.18928513       7.33168033      -5.32446637
O        1.83479124       8.05783507      -4.57880441
C       -0.20498404       6.99900084      -5.15775768
C       -1.10258612       7.34542215      -4.16386474
C       -2.34133781       6.74908372      -4.50308509
C       -2.13012199       6.07401828      -5.68267698
Br      -3.42257416       5.10233227      -6.61204986
O       -0.83970585       6.21299084      -6.08438638
H        2.52810054       4.86461020      -5.29786424
H        4.96698887       4.87773336      -3.65752607
H        4.91929986       3.66126173      -4.92992439
H        3.24737354       4.85933108      -1.81144307
H        1.82078695       3.43549399      -0.38981598
H        1.93663241       0.32995293      -3.37595205
H        3.36669653       1.74511545      -4.79859852
H        3.26398486       6.68737616      -7.72322840
H        3.29577718       8.02883311      -6.57210651
H       -0.87779327       7.95846823      -3.29988124
H       -3.27168469       6.80719140      -3.95467984
O       -6.40615502      -5.77408810      -5.27817466
C       -6.21339641      -5.74737254      -4.06497908
N       -5.18999144      -5.03516878      -3.48550200
C       -4.26938805      -4.27085281      -4.28955202
C       -3.39683092      -3.40031298      -3.42569501
C       -3.83756368      -2.13013493      -3.02488757
C       -3.03442592      -1.32474750      -2.21443377
C       -1.79172003      -1.79172003      -1.79172003
C       -1.34754754      -3.05806623      -2.16665966
C       -2.15056312      -3.86207356      -2.97829809
C       -7.07670524      -6.54881291      -3.08961458
O       -6.85217881      -6.25225629      -1.71102396
C       -7.46409509      -5.11997304      -1.26136371
O       -8.14334790      -4.37321129      -1.95487153
C       -7.17155939      -4.91735933       0.13714425
C       -7.51337620      -3.88307427       0.98974970
C       -6.96943279      -4.19965112       2.25825290
C       -6.32792562      -5.40703288       2.10838522
Br      -5.43065331      -6.32352702       3.46237237
O       -6.43825550      -5.84720078       0.82778491
H       -4.95525173      -5.21876443      -2.51655881
H       -4.83376719      -3.66186771      -5.00661341
H       -3.66299888      -4.97086669      -4.87662040
H       -4.80924357      -1.76054241      -3.34836172
H       -3.38557035      -0.33882037      -1.92170620
H       -0.38014870      -3.42667718      -1.83571151
H       -1.79507796      -4.84981689      -3.26551566
H       -6.83367757      -7.60689366      -3.23401819
H       -8.13389264      -6.41443443      -3.34838973
H       -8.08935866      -3.00764566       0.71644811
H       -7.03930900      -3.61864903       3.16777148
O       -5.40952647       6.46443187       5.58445944
C       -4.20069264       6.46064029       5.36441509
N       -3.55983328       5.42583059       4.72499834
C       -4.28872959       4.26653037       4.27453293
C       -3.42430282       3.39299603       3.40554007
C       -3.31375968       3.64835583       2.03047067
C       -2.50387084       2.84593764       1.22379871
C       -1.79172003       1.79172003       1.79172003
C       -1.87711820       1.53632751       3.15882772
C       -2.68834826       2.33818850       3.96439801
C       -3.28919968       7.59776938       5.82816366
O       -1.95584893       7.53897926       5.32063087
C       -1.80811226       7.99351124       4.04380834
O       -2.72242555       8.40723358       3.34177159
C       -0.42829997       7.88915615       3.63431835
C        0.17556581       8.16216846       2.42009812
C        1.55617934       7.88952872       2.57748163
C        1.71650059       7.46665515       3.87641871
Br       3.33838708       6.97515465       4.65504040
O        0.52161380       7.45633975       4.52294541
H       -2.54766324       5.38223953       4.76067221
H       -5.18331522       4.59055682       3.72837626
H       -4.63789958       3.71622520       5.15636119
H       -3.86444711       4.47292474       1.58077584
H       -2.43757692       3.05007448       0.15844552
H       -1.32012019       0.71689151       3.60552569
H       -2.74821153       2.13102923       5.03116976
H       -3.22031838       7.53489177       6.91937927
H       -3.75639699       8.55879213       5.58152768
H       -0.33183641       8.51709906       1.53162074
H        2.33581370       7.99115721       1.83484304
O        6.46330577      -5.59103793       5.40407409
C        6.45333328      -5.37847779       4.19393696
N        5.41852989      -4.73660174       3.55553059
C        4.26661930      -4.27439490       4.28877868
C        3.39311365      -3.40534536       3.42437991
C        3.65630413      -2.03260909       3.30367296
C        2.85386569      -1.22598364       2.49375786
C        1.79172003      -1.79172003       1.79172003
C        1.52838925      -3.15665069       1.88723349
C        2.33028571      -3.96216272       2.69848634
C        7.58185132      -5.85496166       3.27831975
O        7.51788863      -5.35535335       1.94221708
C        7.97940190      -4.08233422       1.78369572
O        8.40317113      -3.37723512       2.69102448
C        7.86897773      -3.68076872       0.40202802
C        8.14574259      -2.47204606      -0.21108788
C        7.86351854      -2.63628654      -1.58897407
C        7.43160221      -3.93352812      -1.73855705
Br       6.92516568      -4.71911330      -3.35247101
O        7.42473539      -4.57255257      -0.53961659
H        5.36840070      -4.77828140       2.54389287
H        4.59960591      -3.72473230       5.17791009
H        3.71304447      -5.15058755       4.64685396
H        4.48706859      -1.58466272       3.84641638
H        3.06419001      -0.16235731       2.41954960
H        0.70273670      -3.60167152       1.33812918
H        2.11689014      -5.02722857       2.76629180
H        7.51177648      -6.94616981       3.21664313
H        8.54728341      -5.61143603       3.73799735
H        8.50933884      -1.58267093       0.28854644
H        7.96488338      -1.89914782      -2.37384465
C       -0.00445707       0.01189536      -1.78238275
H       -0.66409135       0.67374010      -2.43557963
H        0.65740317      -0.63156657      -2.45157240
C       -0.90989263      -0.90692880      -0.91072765
C        0.90977584       0.90977584      -0.90977584
C       -0.00465871       1.77757030       0.00794375
H       -0.66225468       2.44313916      -0.64384735
H        0.64322798       2.43503045       0.67728295
C       -1.78241447       0.00034974      -0.00472694
H       -2.45427497      -0.65498947       0.64260836
H       -2.43311707       0.67328779      -0.65473579
C       -0.91132561       0.90220522       0.91563759
C       -0.01476271      -0.02253852       1.78660255
H       -0.67934791      -0.69751639       2.42135241
H        0.63392994       0.61504881       2.47327442
C        0.01484550      -1.77751727      -0.01636693
H        0.67870853      -2.42144646      -0.68295456
H       -0.62264859      -2.45592969       0.64226336
C        1.78714474       0.01002794       0.00389507
H        2.44202412       0.67113390       0.66197326
H        2.45385902      -0.65136977      -0.64189061
C        0.91606151      -0.90478549       0.90901405
