133
Properties=species:S:1:pos:R:3 pbc="F F F"
C        0.00000000       0.00000000       0.00000000
O        4.34823829       5.47887011      -4.90159731
C        3.14174920       5.24636797      -4.90791878
N        2.57225735       4.22777059      -4.18092219
C        3.37967517       3.36011487      -3.36029077
C        2.51587651       2.48778483      -2.48946551
C        2.05841897       2.95589606      -1.24855909
C        1.24789749       2.15258534      -0.44341228
C        0.88181600       0.88181600      -0.88181600
C        1.31341713       0.40952311      -2.11962113
C        2.12507948       1.21279656      -2.92334665
C        2.16631918       6.04981861      -5.76928286
O        0.78657033       5.78880223      -5.51037443
C        0.27938111       6.42177631      -4.41456234
O        0.92488722       7.14793105      -3.66890039
C       -1.11488807       6.08909682      -4.24785365
C       -2.01249014       6.43551812      -3.25396071
C       -3.25124183       5.83917970      -3.59318107
C       -3.04002601       5.16411426      -4.77277296
O       -1.74960987       5.30308681      -5.17448236
H        1.61819652       3.95470617      -4.38796021
H        4.05708485       3.96782934      -2.74762204
H        4.00939583       2.75135770      -4.02002037
H        2.33746952       3.94942706      -0.90153905
H        0.91088293       2.52558996       0.52008804
H        1.02672839      -0.57995109      -2.46604803
H        2.45679251       0.83521143      -3.88869450
H        2.35408084       5.77747213      -6.81332437
H        2.38587315       7.11892908      -5.66220248
H       -1.78769729       7.04856421      -2.38997722
H       -4.18158872       5.89728738      -3.04477582
C       -4.03793501       4.41387047      -5.49034656
C       -4.87368380       3.78554129      -6.09131445
Br      -6.22501891       2.76958615      -7.06302870
O       -4.36559255      -5.49412226      -4.86899091
C       -3.15312439      -5.29630106      -4.84661049
N       -2.57496790      -4.27346841      -4.13251382
C       -3.37965388      -3.35956389      -3.36086304
C       -2.51580533      -2.48703532      -2.49028619
C       -2.10770855      -2.93144875      -1.22371681
C       -1.29724527      -2.12828931      -0.41836052
C       -0.88181600      -0.88181600      -0.88181600
C       -1.26404370      -0.43386877      -2.14464889
C       -2.07568622      -1.23691694      -2.94861953
C       -2.17752912      -6.15202283      -5.65586870
O       -0.79865193      -5.92287543      -5.36421963
C       -0.34156421      -6.53767445      -4.23648110
O       -1.02898350      -7.22305052      -3.48968464
C        1.05653976      -6.24003461      -4.03856756
C        1.91499871      -6.58260211      -3.00938530
C        3.17981483      -6.03190693      -3.32902683
C        3.02206781      -5.38591833      -4.53301068
O        1.74008051      -5.49984236      -4.96819745
H       -1.60782410      -4.03381562      -4.31922319
H       -4.09170290      -3.92958319      -2.75125014
H       -3.97227820      -2.75271622      -4.05577949
H       -2.42546800      -3.90606329      -0.85690433
H       -0.99882086      -2.48236904       0.56480506
H       -0.93878801       0.53649254      -2.51052985
H       -2.36862694      -0.87846532      -3.93360618
H       -2.32748069      -5.90511789      -6.71227876
H       -2.43123146      -7.21086714      -5.52490612
H        1.64788832      -7.16346265      -2.13526981
H        4.09209451      -6.10036874      -2.75220024
C        4.06150289      -4.68567064      -5.24211426
C        4.93202977      -4.09921320      -5.83598851
Br       6.33959811      -3.15096112      -6.79623293
O       -4.75530874       4.43735099       5.53604597
C       -4.62309222       3.21851088       5.45443285
N       -3.95314451       2.60607988       4.42172575
C       -3.36298844       3.37932127       3.35777110
C       -2.49331550       2.51519536       2.48461598
C       -1.15367781       2.28037740       2.82881890
C       -0.34756666       1.47020082       2.02612764
C       -0.88181600       0.88181600       0.88181600
C       -2.21534143       1.09101532       0.53620462
C       -3.02021751       1.90248029       1.33852489
C       -5.23786404       2.26631826       6.48123835
O       -4.82445801       0.90533748       6.35595150
C       -3.60062204       0.62683013       6.88826759
O       -2.86885228       1.45189198       7.42097439
C       -3.28451899      -0.76948057       6.70702399
C       -2.14165666      -1.48366476       7.01899679
C       -2.37627142      -2.82475537       6.62960288
C       -3.64669371      -2.85314283       6.10331033
O       -4.20291359      -1.61411423       6.13915993
H       -4.05799453       1.60547568       4.29739269
H       -2.78069421       4.20329059       3.78855144
H       -4.17214313       3.83441409       2.77421669
H       -0.73080564       2.73386998       3.72376000
H        0.69123865       1.30706259       2.30056090
H       -2.63608482       0.63064635      -0.35390584
H       -4.06066147       2.05955104       1.06048593
H       -6.32304775       2.28688858       6.33494101
H       -5.03348695       2.64271300       7.49080477
H       -1.24918348      -1.07345447       7.47511513
H       -1.70170501      -3.66486724       6.72363671
C       -4.30511331      -4.02454065       5.58570935
C       -4.85653973      -5.00558632       5.15221853
Br      -5.74814961      -6.59185421       4.45130054
O        4.58548474      -4.58083866       5.56238231
C        4.25769017      -3.39915975       5.63918603
N        3.65102850      -2.72241699       4.60750465
C        3.36658330      -3.37799106       3.35550645
C        2.49838268      -2.51311727       2.48162690
C        1.10250112      -2.54096588       2.61940712
C        0.29518333      -1.73148767       1.81722411
C        0.88181600      -0.88181600       0.88181600
C        2.26751646      -0.82967298       0.74537192
C        3.07390907      -1.64052324       1.54679039
C        4.54058511      -2.55926078       6.88557476
O        3.92076001      -1.27293078       6.89205620
C        2.60243556      -1.27377849       7.23950571
O        1.95433243      -2.27708415       7.51030207
C        2.07947924       0.07095052       7.21353368
C        0.79697024       0.54444694       7.42446539
C        0.85049838       1.95239683       7.28301739
C        2.16017003       2.25792395       6.99461513
O        2.91110926       1.12683847       6.94368851
H        3.59817021      -1.71102364       4.65166905
H        2.87884362      -4.34061141       3.55308120
H        4.31917095      -3.60120252       2.86040044
H        0.63763811      -3.19972153       3.35107599
H       -0.78506111      -1.77283868       1.92860727
H        2.72840561      -0.16536999       0.01904972
H        4.15522886      -1.59239814       1.43307143
H        5.62247481      -2.39443569       6.92796684
H        4.25830733      -3.13066000       7.77803739
H       -0.06820511      -0.06521325       7.65383600
H        0.03428099       2.65510586       7.38129935
C        2.67465446       3.58511555       6.77674310
C        3.10553518       4.69663851       6.59427527
Br       3.80223286       6.49387713       6.29924022
