154
Properties=species:S:1:pos:R:3 pbc="F F F"
O        5.25814231       6.38877414      -5.81150133
C        4.05165322       6.15627199      -5.81782281
N        3.48216137       5.13767462      -5.09082622
C        4.28957920       4.27001889      -4.27019479
C        3.42578053       3.39768885      -3.39936953
C        2.96832299       3.86580008      -2.15846311
C        2.15780151       3.06248936      -1.35331631
C        1.79172003       1.79172003      -1.79172003
C        2.22332115       1.31942713      -3.02952515
C        3.03498350       2.12270058      -3.83325068
C        3.07622321       6.95972263      -6.67918688
O        1.69647435       6.69870625      -6.42027846
C        1.18928513       7.33168033      -5.32446637
O        1.83479124       8.05783507      -4.57880441
C       -0.20498404       6.99900084      -5.15775768
C       -1.10258612       7.34542215      -4.16386474
C       -2.34133781       6.74908372      -4.50308509
C       -2.13012199       6.07401828      -5.68267698
O       -0.83970585       6.21299084      -6.08438638
H        2.52810054       4.86461020      -5.29786424
H        4.96698887       4.87773336      -3.65752607
H        4.91929986       3.66126173      -4.92992439
H        3.24737354       4.85933108      -1.81144307
H        1.82078695       3.43549399      -0.38981598
H        1.93663241       0.32995293      -3.37595205
H        3.36669653       1.74511545      -4.79859852
H        3.26398486       6.68737616      -7.72322840
H        3.29577718       8.02883311      -6.57210651
H       -0.87779327       7.95846823      -3.29988124
H       -3.27168469       6.80719140      -3.95467984
C       -3.12803099       5.32377449      -6.40025058
C       -3.96377978       4.69544531      -7.00121847
Br      -5.31511488       3.67949018      -7.97293273
O       -6.43936276      -5.68681787      -5.33223715
C       -6.33624185      -5.57667356      -4.11283261
N       -5.30481134      -4.89843680      -3.50741407
C       -4.26800012      -4.27247257      -4.28932020
C       -3.39495602      -3.40262320      -3.42525969
C       -3.76036118      -2.07485969      -3.15736531
C       -2.95758821      -1.26889500      -2.34712397
C       -1.79172003      -1.79172003      -1.79172003
C       -1.42451885      -3.11384255      -2.03391203
C       -2.22697040      -3.91854032      -2.84542404
C       -7.33190201      -6.22997965      -3.15325107
O       -7.18776601      -5.84064638      -1.78704667
C       -7.73810260      -4.63320739      -1.47412185
O       -8.30111122      -3.89625344      -2.27406607
C       -7.53544577      -4.34071832      -0.07561038
C       -7.85533773      -3.21831307       0.66695003
C       -7.43502307      -3.47114349       1.99533555
C       -6.88373536      -4.73122127       1.98838335
O       -6.93328737      -5.26390981       0.73952581
H       -5.15870545      -5.02019132      -2.51167821
H       -4.72620117      -3.68294236      -5.09310477
H       -3.67797828      -5.06095181      -4.77155588
H       -4.67212716      -1.66105352      -3.58496702
H       -3.24883431      -0.23907876      -2.15818385
H       -0.51748696      -3.52574963      -1.59930080
H       -1.93196822      -4.95004095      -3.02840133
H       -7.16502399      -7.31145508      -3.19811035
H       -8.35248770      -6.03834655      -3.50588254
H       -8.33669974      -2.32724748       0.28339101
H       -7.52548832      -2.81498664       2.85028841
C       -6.33040024      -5.40186797       3.13627413
C       -5.86698208      -5.96353459       4.09763266
Br      -5.11767412      -6.87170200       5.65206809
O       -5.65751637       6.44813435       5.35276706
C       -4.56656095       6.63862539       4.82056168
N       -3.81909220       5.62791990       4.26365011
C       -4.28571550       4.26403576       4.28004162
C       -3.41978835       3.38981753       3.41323304
C       -3.67309261       3.28192015       2.03757342
C       -2.86454529       2.47992031       1.22914158
C       -1.79172003       1.79172003       1.79172003
C       -1.51644483       1.90270986       3.15311874
C       -2.32633323       2.70360757       3.96099397
C       -3.91956524       8.02353902       4.77202846
O       -2.75701946       8.11086903       3.94757057
C       -3.00851794       8.22446356       2.61245034
O       -4.12661662       8.23215056       2.11266355
C       -1.76945710       8.30516891       1.87714846
C       -1.53017696       8.36069184       0.51583196
C       -0.12610624       8.43638091       0.34834386
C        0.41099912       8.42309122       1.61448118
O       -0.57362970       8.33735209       2.54668959
H       -2.84861048       5.80878177       4.03318273
H       -5.32838938       4.23362631       3.94023262
H       -4.28049113       3.91161407       5.31838078
H       -4.50741755       3.82005026       1.59067988
H       -3.08068035       2.39818309       0.16723349
H       -0.67820259       1.36991800       3.59441681
H       -2.10304163       2.78423529       5.02313358
H       -3.60908873       8.27335053       5.79215016
H       -4.66967640       8.76220767       4.46483272
H       -2.28908227       8.34812474      -0.25665079
H        0.42347677       8.49494261      -0.58127929
C        1.81632471       8.49121141       1.92110739
C        2.99328489       8.54826206       2.17790684
Br       4.89632996       8.64050815       2.59312982
O        6.45551358      -5.62880450       5.37409970
C        6.40950178      -5.45805848       4.15818776
N        5.37531161      -4.80196631       3.53338429
C        4.26714498      -4.27361784       4.28903006
C        3.39381171      -3.40424738       3.42477982
C        3.69988289      -2.04684052       3.24586277
C        2.89732123      -1.24047920       2.43580675
C        1.79172003      -1.79172003       1.79172003
C        1.48487524      -3.14219842       1.94519978
C        2.28698215      -3.94738193       2.75657069
C        7.48726819      -6.00614254       3.22172199
O        7.39275501      -5.55113079       1.87157326
C        7.89209248      -4.30174124       1.65159811
O        8.37230215      -3.58130048       2.51782809
C        7.74614574      -3.94456151       0.26106722
C        8.04242977      -2.76850351      -0.40423251
C        7.70543844      -2.97013181      -1.76473925
C        7.22376925      -4.25544521      -1.85264118
O        7.23779241      -4.85190871      -0.63202975
H        5.28750967      -4.87682915       2.52623615
H        4.65064932      -3.70579367       5.14580532
H        3.69676155      -5.11646125       4.69726318
H        4.56459703      -1.61045899       3.74309167
H        3.14155552      -0.18829099       2.31625041
H        0.62513977      -3.57606171       1.44133591
H        2.03940087      -5.00111943       2.86989021
H        7.37727898      -7.09561537       3.20169507
H        8.47642336      -5.78163518       3.63865825
H        8.45429713      -1.87597588       0.05028320
H        7.80404794      -2.26472674      -2.57858813
C        6.76752488      -4.89037075      -3.06190155
C        6.38542022      -5.42212089      -4.07465711
Br       5.76758931      -6.28191590      -5.71219719
C       -0.00445707       0.01189536      -1.78238275
H       -0.66409135       0.67374010      -2.43557963
H        0.65740317      -0.63156657      -2.45157240
C       -0.90989263      -0.90692880      -0.91072765
C        0.90977584       0.90977584      -0.90977584
C       -0.00465871       1.77757030       0.00794375
H       -0.66225468       2.44313916      -0.64384735
H        0.64322798       2.43503045       0.67728295
C       -1.78241447       0.00034974      -0.00472694
H       -2.45427497      -0.65498947       0.64260836
H       -2.43311707       0.67328779      -0.65473579
C       -0.91132561       0.90220522       0.91563759
C       -0.01476271      -0.02253852       1.78660255
H       -0.67934791      -0.69751639       2.42135241
H        0.63392994       0.61504881       2.47327442
C        0.01484550      -1.77751727      -0.01636693
H        0.67870853      -2.42144646      -0.68295456
H       -0.62264859      -2.45592969       0.64226336
C        1.78714474       0.01002794       0.00389507
H        2.44202412       0.67113390       0.66197326
H        2.45385902      -0.65136977      -0.64189061
C        0.91606151      -0.90478549       0.90901405
