146
Properties=species:S:1:pos:R:3 pbc="F F F"
C        5.69597671       4.02602467      -1.54651906
O        4.31987169       4.36596274      -1.36167683
C        3.49024056       3.48435683      -2.01337196
C        2.67025492       2.69663389      -1.20286285
C        1.79160299       1.79160299      -1.79160299
C        1.71381834       1.68050897      -3.17911478
C        2.51604039       2.49300008      -3.98680234
C        3.39830223       3.41784946      -3.41918049
N        4.18909529       4.20159992      -4.28206179
C        4.08250611       5.48892108      -4.14918805
C        4.97091821       6.40447908      -4.89071832
C        4.95261453       7.75809231      -4.54174995
C        5.83987572       8.63562616      -5.16472473
C        6.73220289       8.17857651      -6.13588988
C        6.74051461       6.82823441      -6.48946337
C        5.86751356       5.94345160      -5.86263999
O        5.94924279       4.62981913      -6.23456737
H        6.25848298       4.47429224      -0.72215394
H        6.08446393       4.45130355      -2.47549365
H        5.86331208       2.94363712      -1.52206142
H        2.73528246       2.78909345      -0.12268560
H        1.03329381       0.97052217      -3.64205145
H        2.45059215       2.40779581      -5.06842486
H        3.36046323       5.94759187      -3.44827947
H        4.27427605       8.12266081      -3.77507393
H        7.42818028       8.86140275      -6.61695867
H        7.43605327       6.46271116      -7.24041386
H        5.33577018       4.12540885      -5.65247672
C        5.84796344      10.02528612      -4.78739228
C        5.85473690      11.18912634      -4.47137635
Br       5.86568902      13.07095753      -3.96040532
C       -1.36442705      -5.21429888      -4.68979450
O       -1.44961730      -3.79209133      -4.80580263
C       -2.05218790      -3.23105637      -3.70472507
C       -1.24710421      -2.40792890      -2.91471855
C       -1.79160299      -1.79160299      -1.79160299
C       -3.13370960      -1.97680870      -1.46292380
C       -3.94305795      -2.77846199      -2.27432286
C       -3.42205918      -3.39906408      -3.41420893
N       -4.28175511      -4.20360123      -4.18740066
C       -4.39504401      -3.88454368      -5.44102754
C       -5.14531789      -4.74304378      -6.37775395
C       -5.04685277      -4.46195284      -7.74365117
C       -5.67524621      -5.30412630      -8.66085410
C       -6.40667250      -6.41153576      -8.22846103
C       -6.51168433      -6.68322753      -6.86330053
C       -5.87614342      -5.85533258      -5.94212915
O       -5.99453110      -6.19621908      -4.62287912
H       -0.55736918      -5.54962489      -5.34793509
H       -2.28529570      -5.69247457      -5.03349087
H       -1.12508132      -5.53420223      -3.66972706
H       -0.20265982      -2.26720730      -3.17719439
H       -3.56060295      -1.50202900      -0.58323547
H       -4.99024893      -2.91794695      -2.01861694
H       -3.90147677      -2.99017124      -5.86468656
H       -4.46620574      -3.61255569      -8.09324937
H       -6.89122462      -7.07163084      -8.94368623
H       -7.07429741      -7.54673399      -6.51814689
H       -5.43079840      -5.57201070      -4.11084665
C       -5.55159475      -5.03834521     -10.07070187
C       -5.44803666      -4.81575355     -11.25144938
Br      -5.28059198      -4.45584167     -13.16061823
C       -2.30876800       2.81018239       6.14957005
O       -2.91705281       1.88502538       5.24543307
C       -2.76624285       2.28347322       3.93825328
C       -1.97727343       1.46139292       3.13108532
C       -1.79160299       1.79160299       1.79160299
C       -2.40010800       2.92308123       1.25025287
C       -3.21339502       3.72664079       2.05580700
C       -3.42446526       3.40941987       3.40144705
N       -4.24459959       4.26135484       4.16680256
C       -5.26588724       3.70770496       4.74702302
C       -6.10498735       4.46763203       5.69349624
C       -7.04834027       3.75989917       6.44421735
C       -7.79894314       4.43385696       7.40742650
C       -7.62542819       5.80265501       7.61858608
C       -6.69004513       6.50829198       6.85987528
C       -5.92728256       5.84034202       5.90598057
O       -5.00846387       6.58554304       5.21962239
H       -2.10243207       2.27264864       7.07984845
H       -2.99056116       3.62973356       6.39096641
H       -1.36002311       3.20209995       5.76688756
H       -1.50707505       0.58089199       3.55909447
H       -2.25229890       3.18727816       0.20629037
H       -3.69036283       4.60590457       1.63054541
H       -5.52034762       2.64249307       4.59349388
H       -7.18042498       2.69087920       6.30070661
H       -8.20599071       6.32678153       8.37376945
H       -6.54427024       7.57311067       7.02179739
H       -4.49952197       5.96445520       4.64967858
C       -8.74992472       3.70475983       8.20595729
C       -9.54637178       3.09414098       8.87472683
Br     -10.83415933       2.10682195       9.95607060
C        5.57871598      -1.47820234       4.21160211
O        5.25450846      -1.90620109       2.88680170
C        3.93306296      -2.27136260       2.78354379
C        3.13676995      -1.47465694       1.95832477
C        1.79160299      -1.79160299       1.79160299
C        1.24223204      -2.90436614       2.42684392
C        2.05125294      -3.71601475       3.22857512
C        3.40806884      -3.42487057       3.40239277
N        4.17121169      -4.27164271       4.22990258
C        5.22033736      -4.81209448       3.68818340
C        6.17562411      -5.59258628       4.49790522
C        7.38718929      -5.96014592       3.90512157
C        8.34655123      -6.62512698       4.66854839
C        8.10390257      -6.93504928       6.00771743
C        6.88884163      -6.57587947       6.59349130
C        5.93151830      -5.89992949       5.84215735
O        4.77634040      -5.55122831       6.48606059
H        6.46754516      -0.84395466       4.14342934
H        5.83366546      -2.32937715       4.84821852
H        4.77516408      -0.88810070       4.66574583
H        3.57151848      -0.60988108       1.46566195
H        0.19084332      -3.15123539       2.30378872
H        1.62183851      -4.58558866       3.71938565
H        5.46408936      -4.67386305       2.61838216
H        7.59435850      -5.70937132       2.86828098
H        8.85419419      -7.44776182       6.60458569
H        6.69390422      -6.80803394       7.63724013
H        4.24315737      -5.01591479       5.85458360
C        9.60905545      -6.97862414       4.07296225
C       10.66640273      -7.27467800       3.57415885
Br      12.37604386      -7.75337207       2.76763595
C       -0.00445707       0.01189536      -1.78238275
H       -0.66409135       0.67374010      -2.43557963
H        0.65740317      -0.63156657      -2.45157240
C       -0.90989263      -0.90692880      -0.91072765
C        0.90977584       0.90977584      -0.90977584
C       -0.00465871       1.77757030       0.00794375
H       -0.66225468       2.44313916      -0.64384735
H        0.64322798       2.43503045       0.67728295
C       -1.78241447       0.00034974      -0.00472694
H       -2.45427497      -0.65498947       0.64260836
H       -2.43311707       0.67328779      -0.65473579
C       -0.91132561       0.90220522       0.91563759
C       -0.01476271      -0.02253852       1.78660255
H       -0.67934791      -0.69751639       2.42135241
H        0.63392994       0.61504881       2.47327442
C        0.01484550      -1.77751727      -0.01636693
H        0.67870853      -2.42144646      -0.68295456
H       -0.62264859      -2.45592969       0.64226336
C        1.78714474       0.01002794       0.00389507
H        2.44202412       0.67113390       0.66197326
H        2.45385902      -0.65136977      -0.64189061
C        0.91606151      -0.90478549       0.90901405
