138
Properties=species:S:1:pos:R:3 pbc="F F F"
C        5.69597671       4.02602467      -1.54651906
O        4.31987169       4.36596274      -1.36167683
C        3.49024056       3.48435683      -2.01337196
C        2.67025492       2.69663389      -1.20286285
C        1.79160299       1.79160299      -1.79160299
C        1.71381834       1.68050897      -3.17911478
C        2.51604039       2.49300008      -3.98680234
C        3.39830223       3.41784946      -3.41918049
N        4.18909529       4.20159992      -4.28206179
C        4.08250611       5.48892108      -4.14918805
C        4.97091821       6.40447908      -4.89071832
C        4.95261453       7.75809231      -4.54174995
C        5.83987572       8.63562616      -5.16472473
Br       5.85049484      10.46024048      -4.66928973
C        6.73220289       8.17857651      -6.13588988
C        6.74051461       6.82823441      -6.48946337
C        5.86751356       5.94345160      -5.86263999
O        5.94924279       4.62981913      -6.23456737
H        6.25848298       4.47429224      -0.72215394
H        6.08446393       4.45130355      -2.47549365
H        5.86331208       2.94363712      -1.52206142
H        2.73528246       2.78909345      -0.12268560
H        1.03329381       0.97052217      -3.64205145
H        2.45059215       2.40779581      -5.06842486
H        3.36046323       5.94759187      -3.44827947
H        4.27427605       8.12266081      -3.77507393
H        7.42818028       8.86140275      -6.61695867
H        7.43605327       6.46271116      -7.24041386
H        5.33577018       4.12540885      -5.65247672
C       -1.56847802      -3.97274936      -5.72729305
O       -2.05002505      -2.69594029      -5.30154592
C       -2.34130945      -2.68873777      -3.95792214
C       -1.54622575      -1.86359077      -3.15993514
C       -1.79160299      -1.79160299      -1.79160299
C       -2.83245178      -2.52155859      -1.21943174
C       -3.64450002      -3.32347010      -2.02787269
C       -3.42513251      -3.40340909      -3.40679058
N       -4.26801942      -4.23566852      -4.16906904
C       -4.89929582      -3.66906192      -5.15225749
C       -5.68852618      -4.46889330      -6.10869613
C       -6.15999100      -3.83202873      -7.26043705
C       -6.83693167      -4.57863433      -8.22466061
Br      -7.44173595      -3.73392482      -9.80436427
C       -7.05638860      -5.94532672      -8.04495396
C       -6.59347082      -6.57589880      -6.88884278
C       -5.90504136      -5.84058036      -5.92798342
O       -5.45285535      -6.52635432      -4.83441962
H       -0.99292882      -3.81735713      -6.64464322
H       -2.39628036      -4.64348532      -5.97149545
H       -0.90720160      -4.43536712      -4.98644190
H       -0.73774457      -1.29688027      -3.61243666
H       -3.02297890      -2.47247282      -0.15041572
H       -4.45818365      -3.88832047      -1.58030870
H       -4.83593098      -2.58096858      -5.33943502
H       -5.98044028      -2.77215481      -7.41941571
H       -7.57848948      -6.52860377      -8.79944845
H       -6.75480262      -7.64086729      -6.74350839
H       -4.92305586      -5.89507886      -4.29552103
C       -1.39188959       4.52998255       5.34664829
O       -1.73337142       3.15456087       5.15957896
C       -2.18767851       2.91626872       3.88402212
C       -1.38860955       2.09126080       3.08988131
C       -1.79160299       1.79160299       1.79160299
C       -2.99091777       2.29386794       1.28865639
C       -3.80195381       3.09544591       2.09844309
C       -3.42430182       3.40115836       3.40987200
N       -4.27581840       4.22194794       4.17499065
C       -4.68931869       3.72856385       5.30273269
C       -5.45899189       4.55240036       6.25472337
C       -5.68422318       4.03462088       7.53361273
C       -6.33500963       4.82151282       8.48370415
Br      -6.60703241       4.14488068      10.22811195
C       -6.77087206       6.10908558       8.16671165
C       -6.55366926       6.61897894       6.88556420
C       -5.89281713       5.84510032       5.93568770
O       -5.68624686       6.41686823       4.71051421
H       -0.68884162       4.58286150       6.18322604
H       -2.27057267       5.11916815       5.62152031
H       -0.90332732       4.96017340       4.46550990
H       -0.45606321       1.70257171       3.48842659
H       -3.30564080       2.06692898       0.27329764
H       -4.73871376       3.48236791       1.70573115
H       -4.44602750       2.69579903       5.61450804
H       -5.33454922       3.04012452       7.79733706
H       -7.27251374       6.72486202       8.90916593
H       -6.88447956       7.62274814       6.63195059
H       -5.14290713       5.78616358       4.18458504
C        6.14874725      -2.81641636       2.30335683
O        5.04578503      -3.39766484       1.60406139
C        3.84323090      -3.00341314       2.14132530
C        3.03148534      -2.21601518       1.32225114
C        1.79160299      -1.79160299       1.79160299
C        1.35083227      -2.16103832       3.06157150
C        2.15508853      -2.97443128       3.86632300
C        3.39965719      -3.42298079       3.41269420
N        4.17083079      -4.23083487       4.27109133
C        4.52496214      -5.39015599       3.80549710
C        5.45752098      -6.25550577       4.55308887
C        5.96591417      -7.38377778       3.90276484
C        6.91351535      -8.17598974       4.55072151
Br       7.63709355      -9.68020958       3.66272191
C        7.34701039      -7.86025648       5.83940241
C        6.82944107      -6.73887773       6.48989360
C        5.89343995      -5.93535641       5.84480879
O        5.45055407      -4.83588215       6.52719308
H        7.00729361      -2.82236260       1.62527295
H        6.41934298      -3.41473762       3.17718053
H        5.95477261      -1.77858313       2.59565488
H        3.38066129      -1.93279639       0.33360383
H        0.38591648      -1.82633544       3.43361551
H        1.80754577      -3.26485597       4.85441107
H        4.18274403      -5.75455181       2.81903874
H        5.64878386      -7.63019173       2.89303520
H        8.09034560      -8.47415097       6.34204513
H        7.16576561      -6.48233103       7.49108165
H        4.86509350      -4.33235758       5.91620468
C       -0.00445707       0.01189536      -1.78238275
H       -0.66409135       0.67374010      -2.43557963
H        0.65740317      -0.63156657      -2.45157240
C       -0.90989263      -0.90692880      -0.91072765
C        0.90977584       0.90977584      -0.90977584
C       -0.00465871       1.77757030       0.00794375
H       -0.66225468       2.44313916      -0.64384735
H        0.64322798       2.43503045       0.67728295
C       -1.78241447       0.00034974      -0.00472694
H       -2.45427497      -0.65498947       0.64260836
H       -2.43311707       0.67328779      -0.65473579
C       -0.91132561       0.90220522       0.91563759
C       -0.01476271      -0.02253852       1.78660255
H       -0.67934791      -0.69751639       2.42135241
H        0.63392994       0.61504881       2.47327442
C        0.01484550      -1.77751727      -0.01636693
H        0.67870853      -2.42144646      -0.68295456
H       -0.62264859      -2.45592969       0.64226336
C        1.78714474       0.01002794       0.00389507
H        2.44202412       0.67113390       0.66197326
H        2.45385902      -0.65136977      -0.64189061
C        0.91606151      -0.90478549       0.90901405
