138
Properties=species:S:1:pos:R:3 pbc="F F F"
C        3.75357634       2.02668386      -6.00076887
O        3.87469154       1.38433969      -4.73225667
C        3.24926622       2.04462432      -3.70153144
C        2.44911778       1.23618023      -2.88684005
C        1.79170896       1.79170896      -1.79170896
C        1.93339585       3.14466779      -1.49374594
C        2.75094282       3.94670949      -2.29487285
C        3.43268762       3.40636665      -3.39171689
N        4.26418749       4.26454787      -4.13560877
C        5.53827032       4.02643237      -4.05021610
C        6.50796895       4.79150263      -4.85619740
C        7.82759454       4.32963711      -4.88352234
C        8.76420520       4.98182471      -5.68286820
Br      10.53965930       4.33634859      -5.75253641
C        8.40345737       6.09294669      -6.44248059
C        7.08685823       6.55763677      -6.40538057
Cl       6.67947928       7.93378067      -7.36540687
C        6.13026565       5.90696001      -5.61883513
O        4.83987175       6.37238085      -5.62035703
H        4.65866093       2.60049967      -6.21722158
H        2.86308662       2.65922955      -6.08272612
H        3.68001498       1.24396128      -6.76213537
H        2.33996102       0.18108968      -3.12198380
H        1.42157564       3.58339728      -0.64074997
H        2.86858328       5.00048316      -2.05509989
H        5.93779719       3.22306942      -3.40248302
H        8.11943141       3.45571825      -4.30586549
H        9.13788756       6.59454159      -7.06773707
H        4.29156859       5.75394825      -5.08624691
C       -1.71625738      -4.47982099      -5.58495070
O       -1.70889427      -3.11539412      -5.16699952
C       -2.18948677      -2.91035964      -3.89557557
C       -1.38776195      -2.09449142      -3.08988469
C       -1.79170896      -1.79170896      -1.79170896
C       -2.99411362      -2.28561824      -1.29207772
C       -3.80522693      -3.08194213      -2.10535609
C       -3.42601004      -3.38673179      -3.41802933
N       -4.30612519      -4.16691710      -4.19130184
C       -4.87434720      -3.55456840      -5.18600319
C       -5.74196971      -4.28434540      -6.12935386
C       -6.12981885      -3.61605839      -7.29487676
C       -6.89529011      -4.28764120      -8.24596680
Br      -7.38820011      -3.39983404      -9.84051015
C       -7.28731306      -5.60922995      -8.04234163
C       -6.90648553      -6.27072444      -6.87266560
Cl      -7.40808647      -7.90934407      -6.66123628
C       -6.12670304      -5.61617548      -5.91318226
O       -5.74874529      -6.29887095      -4.78499339
H       -2.59335361      -4.67537917      -6.20764940
H       -1.66525624      -5.18849325      -4.75129280
H       -0.83453836      -4.63786239      -6.21371088
H       -0.44993474      -1.71099636      -3.48210340
H       -3.31345061      -2.05311753      -0.27915476
H       -4.74835721      -3.45843349      -1.71737563
H       -4.70132723      -2.47940402      -5.38261839
H       -5.81965672      -2.58898292      -7.47237550
H       -7.88060948      -6.12912389      -8.79043285
H       -5.14267855      -5.72163778      -4.26744741
C       -4.45902745       5.59971561       1.72228601
O       -3.09683808       5.17447111       1.71997872
C       -2.90120407       3.89940689       2.19481102
C       -2.08535749       3.09363999       1.39314058
C       -1.79170896       1.79170896       1.79170896
C       -2.29475175       1.28831291       2.98874492
C       -3.09106448       2.10151161       3.79994907
C       -3.38677565       3.41781813       3.42617739
N       -4.16753590       4.19055579       4.30625245
C       -3.55293776       5.17888976       4.88309126
C       -4.28231327       6.12149622       5.75185948
C       -3.60989285       7.28131146       6.14954968
C       -4.28048452       8.23189075       6.91652284
Br      -3.38681875       9.81896988       7.42275567
C       -5.60523572       8.03328665       7.30036227
C       -6.27092385       6.86924424       6.90970748
Cl      -7.91332843       6.66395610       7.40138228
C       -5.61733344       5.91044022       6.12828713
O       -6.30401524       4.78798252       5.74061186
H       -4.65596738       6.21875288       2.60166192
H       -5.17186835       4.77016963       1.66300432
H       -4.60895143       6.23402934       0.84313086
H       -1.69472508       3.48880436       0.45950506
H       -2.06940018       0.27245777       3.30386494
H       -3.47469925       1.71051926       4.73894781
H       -2.47582027       5.37063801       4.71689135
H       -2.58022700       7.45493697       5.84585118
H       -6.12430297       8.78097828       7.89488497
H       -5.72630729       4.27058921       5.13486725
C        4.98026427      -5.17207322       1.62869159
O        3.58186022      -4.93008045       1.47934723
C        3.14001007      -3.77534001       2.08007189
C        2.32383226      -2.97147736       1.27682844
C        1.79170896      -1.79170896       1.79170896
C        2.05632151      -1.41070285       3.10478522
C        2.85321933      -2.22577940       3.91352643
C        3.38630343      -3.42305198       3.42141575
N        4.15309254      -4.21065956       4.30059203
C        3.62262868      -5.34433814       4.64795196
C        4.36565437      -6.30344957       5.48656503
C        3.82695613      -7.58617521       5.62762265
C        4.52662412      -8.54558897       6.35668502
Br       3.82031372     -10.29182659       6.51640400
C        5.74678621      -8.23720912       6.95488931
C        6.27735130      -6.95224734       6.82027693
Cl       7.79411997      -6.61240534       7.57214151
C        5.59499488      -5.98044019       6.08062572
O        6.15192285      -4.73399382       5.94669295
H        5.15190508      -5.88400784       2.44046927
H        5.56397201      -4.25812842       1.78294187
H        5.33440279      -5.64450476       0.70720408
H        2.11950751      -3.27091236       0.25261463
H        1.64429078      -0.49029356       3.51113856
H        3.05061034      -1.93213052       4.94142546
H        2.61625708      -5.64636737       4.30072518
H        2.88212552      -7.84395575       5.15493388
H        6.29001344      -8.99163380       7.51851898
H        5.58675929      -4.21127384       5.33373062
C       -0.00445707       0.01189536      -1.78238275
H       -0.66409135       0.67374010      -2.43557963
H        0.65740317      -0.63156657      -2.45157240
C       -0.90989263      -0.90692880      -0.91072765
C        0.90977584       0.90977584      -0.90977584
C       -0.00465871       1.77757030       0.00794375
H       -0.66225468       2.44313916      -0.64384735
H        0.64322798       2.43503045       0.67728295
C       -1.78241447       0.00034974      -0.00472694
H       -2.45427497      -0.65498947       0.64260836
H       -2.43311707       0.67328779      -0.65473579
C       -0.91132561       0.90220522       0.91563759
C       -0.01476271      -0.02253852       1.78660255
H       -0.67934791      -0.69751639       2.42135241
H        0.63392994       0.61504881       2.47327442
C        0.01484550      -1.77751727      -0.01636693
H        0.67870853      -2.42144646      -0.68295456
H       -0.62264859      -2.45592969       0.64226336
C        1.78714474       0.01002794       0.00389507
H        2.44202412       0.67113390       0.66197326
H        2.45385902      -0.65136977      -0.64189061
C        0.91606151      -0.90478549       0.90901405
