146
Properties=species:S:1:pos:R:3 pbc="F F F"
C        3.75357634       2.02668386      -6.00076887
O        3.87469154       1.38433969      -4.73225667
C        3.24926622       2.04462432      -3.70153144
C        2.44911778       1.23618023      -2.88684005
C        1.79170896       1.79170896      -1.79170896
C        1.93339585       3.14466779      -1.49374594
C        2.75094282       3.94670949      -2.29487285
C        3.43268762       3.40636665      -3.39171689
N        4.26418749       4.26454787      -4.13560877
C        5.53827032       4.02643237      -4.05021610
C        6.50796895       4.79150263      -4.85619740
C        7.82759454       4.32963711      -4.88352234
C        8.76420520       4.98182471      -5.68286820
C        8.40345737       6.09294669      -6.44248059
C        7.08685823       6.55763677      -6.40538057
Cl       6.67947928       7.93378067      -7.36540687
C        6.13026565       5.90696001      -5.61883513
O        4.83987175       6.37238085      -5.62035703
H        4.65866093       2.60049967      -6.21722158
H        2.86308662       2.65922955      -6.08272612
H        3.68001498       1.24396128      -6.76213537
H        2.33996102       0.18108968      -3.12198380
H        1.42157564       3.58339728      -0.64074997
H        2.86858328       5.00048316      -2.05509989
H        5.93779719       3.22306942      -3.40248302
H        8.11943141       3.45571825      -4.30586549
H        9.13788756       6.59454159      -7.06773707
H        4.29156859       5.75394825      -5.08624691
C       10.11662354       4.49014557      -5.73593663
C       11.24927390       4.07836429      -5.78038144
Br      13.08067374       3.41254880      -5.85224494
C       -2.41784643      -3.17735832      -6.18582433
O       -2.61283769      -2.06500229      -5.31344793
C       -2.62843942      -2.38925348      -3.97772906
C       -1.82893854      -1.57593088      -3.16726863
C       -1.79170896      -1.79170896      -1.79170896
C       -2.55342845      -2.80434516      -1.21403598
C       -3.36918538      -3.60168835      -2.02165143
C       -3.43330029      -3.39301192      -3.40445895
N       -4.30018276      -4.21169407      -4.15246731
C       -5.33223420      -3.61470549      -4.66797909
C       -6.26353733      -4.33952798      -5.55260366
C       -7.21180703      -3.58189619      -6.24705077
C       -8.06987627      -4.21522447      -7.14379738
C       -8.00126164      -5.59233593      -7.34528708
C       -7.05950451      -6.34756142      -6.64280964
Cl      -7.00337700      -8.05004847      -6.92524134
C       -6.18114066      -5.72637262      -5.74854751
O       -5.25166488      -6.49078828      -5.09015647
H       -3.37886948      -3.51205143      -6.58546127
H       -1.88174088      -4.00839814      -5.71490328
H       -1.82026341      -2.83106954      -7.03477868
H       -1.23530453      -0.78700668      -3.62072328
H       -2.52711005      -2.97758278      -0.14103006
H       -3.97093390      -4.38520296      -1.56802947
H       -5.52971576      -2.53989739      -4.49373648
H       -7.26728870      -2.50464156      -6.10908489
H       -8.67050543      -6.07980408      -8.04985672
H       -4.67060315      -5.88743444      -4.57372617
C       -9.02719206      -3.43314151      -7.88237216
C       -9.82894405      -2.77814704      -8.50092855
Br     -11.12530919      -1.71907638      -9.50108191
C       -4.10189246       5.82651553       1.85262108
O       -2.78738825       5.27620575       1.92769391
C       -2.74828613       3.95215852       2.29497732
C       -1.93290968       3.14508530       1.49414307
C       -1.79170896       1.79170896       1.79170896
C       -2.44720835       1.23669914       2.88790209
C       -3.24347143       2.04847381       3.70057991
C       -3.38782115       3.41416240       3.42878761
N       -4.17866158       4.17839512       4.30728744
C       -3.53835108       5.05072278       5.02584492
C       -4.26250085       5.97954568       5.91362244
C       -3.53311056       7.03193906       6.47570437
C       -4.18864968       7.97189758       7.26835084
C       -5.55592683       7.86702478       7.51593303
C       -6.27967003       6.80919547       6.96101007
Cl      -7.97275784       6.71841382       7.28749516
C       -5.64033650       5.86393372       6.15179057
O       -6.38159356       4.84907439       5.60194168
H       -4.32691301       6.38318629       2.76628288
H       -4.87485668       5.07629078       1.65389483
H       -4.11273869       6.54565515       1.02771779
H       -1.42313469       3.58064775       0.63925205
H       -2.34116626       0.18070311       3.12385352
H       -3.74645326       1.61592476       4.56178831
H       -2.43783501       5.15342151       4.97209310
H       -2.46822266       7.13301573       6.27977676
H       -6.06239615       8.60632406       8.13144601
H       -5.79603023       4.33360455       5.00212897
C       -3.44563533       9.07325556       7.82381486
C       -2.82336080       9.99564286       8.28901597
Br      -1.81719553      11.48706512       9.04120683
C        4.84376455      -5.29635425       1.64091028
O        3.45059804      -5.00628061       1.53440926
C        3.07548507      -3.81381845       2.10611845
C        2.25934886      -3.00945741       1.30333179
C        1.79170896      -1.79170896       1.79170896
C        2.12078595      -1.37266563       3.07835800
C        2.91746534      -2.18727592       3.88778390
C        3.38629306      -3.42169429       3.42278381
N        4.15664665      -4.20509525       4.30260224
C        3.59822141      -5.30376003       4.71293734
C        4.33690627      -6.25900866       5.55975404
C        3.75675603      -7.51385548       5.77014248
C        4.44790556      -8.47180369       6.50918886
C        5.70086611      -8.18873393       7.04928461
C        6.27322676      -6.93110071       6.84554810
Cl       7.82946835      -6.62235250       7.52684597
C        5.59941579      -5.96183866       6.09480634
O        6.19669632      -4.74365789       5.89225543
H        5.02003550      -5.98372288       2.47262380
H        5.46655334      -4.40052115       1.73796781
H        5.14426744      -5.81602273       0.72582146
H        2.00465468      -3.33863877       0.29974106
H        1.75923821      -0.42257255       3.46391213
H        3.16516296      -1.86346778       4.89553559
H        2.56866803      -5.57941342       4.41526818
H        2.78545682      -7.75236186       5.34319647
H        6.23703201      -8.94209697       7.62103724
H        5.62811035      -4.22265330       5.28100009
C        3.86592251      -9.77476697       6.70201626
C        3.37851170     -10.86599872       6.86350921
Br       2.59040965     -12.63042817       7.12462966
C       -0.00445707       0.01189536      -1.78238275
H       -0.66409135       0.67374010      -2.43557963
H        0.65740317      -0.63156657      -2.45157240
C       -0.90989263      -0.90692880      -0.91072765
C        0.90977584       0.90977584      -0.90977584
C       -0.00465871       1.77757030       0.00794375
H       -0.66225468       2.44313916      -0.64384735
H        0.64322798       2.43503045       0.67728295
C       -1.78241447       0.00034974      -0.00472694
H       -2.45427497      -0.65498947       0.64260836
H       -2.43311707       0.67328779      -0.65473579
C       -0.91132561       0.90220522       0.91563759
C       -0.01476271      -0.02253852       1.78660255
H       -0.67934791      -0.69751639       2.42135241
H        0.63392994       0.61504881       2.47327442
C        0.01484550      -1.77751727      -0.01636693
H        0.67870853      -2.42144646      -0.68295456
H       -0.62264859      -2.45592969       0.64226336
C        1.78714474       0.01002794       0.00389507
H        2.44202412       0.67113390       0.66197326
H        2.45385902      -0.65136977      -0.64189061
C        0.91606151      -0.90478549       0.90901405
