117
Properties=species:S:1:pos:R:3 pbc="F F F"
C        0.00000000       0.00000000       0.00000000
C        2.84367232       1.11677984      -5.09086484
O        2.96478752       0.47443567      -3.82235265
C        2.33936219       1.13472030      -2.79162741
C        1.53921375       0.32627620      -1.97693603
C        0.88180494       0.88180494      -0.88180494
C        1.02349183       2.23476376      -0.58384192
C        1.84103879       3.03680547      -1.38496882
C        2.52278360       2.49646263      -2.48181287
N        3.35428347       3.35464385      -3.22570474
C        4.62836629       3.11652834      -3.14031207
C        5.59806492       3.88159860      -3.94629337
C        6.91769052       3.41973309      -3.97361831
C        7.85430118       4.07192068      -4.77296418
Br       9.62975528       3.42644456      -4.84263239
C        7.49355334       5.18304267      -5.53257656
C        6.17695420       5.64773275      -5.49547654
Cl       5.76957525       7.02387664      -6.45550285
C        5.22036163       4.99705598      -4.70893110
O        3.92996773       5.46247683      -4.71045300
H        3.74875691       1.69059565      -5.30731756
H        1.95318260       1.74932553      -5.17282209
H        2.77011096       0.33405725      -5.85223135
H        1.43005700      -0.72881434      -2.21207977
H        0.51167162       2.67349326       0.26915405
H        1.95867925       4.09057914      -1.14519587
H        5.02789317       2.31316539      -2.49257900
H        7.20952738       2.54581423      -3.39596147
H        8.22798354       5.68463757      -6.15783304
H        3.38166457       4.84404423      -4.17634288
C       -1.63137116      -2.11915484      -5.30079100
O       -1.83403518      -1.05054302      -4.37699764
C       -1.78268905      -1.42705631      -3.05596454
C       -0.98328250      -0.61418350      -2.24495999
C       -0.88180494      -0.88180494      -0.88180494
C       -1.57931491      -1.94632929      -0.31645331
C       -2.39545991      -2.74401956      -1.12333361
C       -2.52379731      -2.48429779      -2.49296398
N       -3.38773202      -3.30769707      -3.23920297
C       -4.46239235      -2.73346066      -3.68935370
C       -5.39985963      -3.46043336      -4.56566390
C       -6.40441187      -2.71541999      -5.19121005
C       -7.27282578      -3.34759538      -6.07876487
Br      -8.60706490      -2.33571470      -6.95605262
C       -7.15874671      -4.71186611      -6.33855975
C       -6.16046437      -5.45505508      -5.70464404
Cl      -6.04943904      -7.14153207      -6.05798363
C       -5.27141513      -4.83407840      -4.82085519
O       -4.28682694      -5.58522085      -4.23084977
H       -2.59403772      -2.47675806      -5.67587434
H       -1.04454366      -2.94547835      -4.88530821
H       -1.08274540      -1.71599748      -6.15765668
H       -0.43981130       0.21530636      -2.68881749
H       -1.50268346      -2.16011014       0.74678278
H       -2.94723711      -3.56844461      -0.67877254
H       -4.69443939      -1.67518480      -3.46401337
H       -6.49625389      -1.64751641      -5.00753278
H       -7.83652174      -5.19824397      -7.03568844
H       -3.70926116      -4.97937936      -3.71341116
C       -4.79246284       3.39709322       0.86176094
O       -3.43807346       3.41100094       0.41250143
C       -2.60501908       2.56073440       1.09995641
C       -1.78938381       1.75950324       0.29353893
C       -0.88180494       0.88180494       0.88180494
C       -0.77118545       0.80313147       2.26778060
C       -1.57034021       1.62024377       3.07222911
C       -2.47871812       2.52011193       2.50222904
N       -3.22824235       3.33525211       3.37113760
C       -2.94583592       4.60266637       3.33670441
C       -3.72476645       5.57445184       4.12673860
C       -3.51401764       6.93188626       3.86513802
C       -4.27401965       7.88472975       4.54043663
Br      -4.01918799       9.71900035       4.16064389
C       -5.22931132       7.50051968       5.47934157
C       -5.43050259       6.14424743       5.74541347
Cl      -6.62745146       5.70988839       6.91161489
C       -4.68584107       5.17350426       5.06700339
O       -4.92165294       3.84853980       5.33270482
H       -4.97330825       4.24301111       1.53035075
H       -5.08051213       2.45473518       1.34008292
H       -5.43298671       3.53781975      -0.01440690
H       -1.87820449       1.82257690      -0.78745896
H       -0.06513372       0.11894986       2.73192724
H       -1.47569659       1.56497537       4.15378229
H       -2.14072698       5.00193037       2.69098021
H       -2.78103312       7.24494258       3.12532737
H       -5.82229829       8.24871011       5.99944575
H       -4.37691372       3.31133212       4.71380584
C        2.48578877      -5.22162306       1.34390517
O        1.31513835      -4.42507716       1.52136032
C        1.55919698      -3.07667268       1.62984023
C        0.74527712      -2.26701290       0.83013597
C        0.88180494      -0.88180494       0.88180494
C        1.81513542      -0.29460284       1.73235924
C        2.61206144      -1.10326393       2.54748772
C        2.48154888      -2.49687860       2.52263161
N        3.29342176      -3.24794150       3.39326880
C        2.67146443      -3.85529605       4.35844623
C        3.39422340      -4.75150052       5.28023297
C        2.62726835      -5.54118956       6.14258400
C        3.26359444      -6.45024898       6.98534262
Br       2.22747871      -7.54716716       8.12418636
C        4.65182988      -6.57084362       6.98649907
C        5.41555543      -5.77366521       6.13094285
Cl       7.13215984      -5.95766176       6.15913314
C        4.79259815      -4.86522102       5.26852955
O        5.56738773      -4.11219660       4.42331323
H        2.78962234      -5.65775202       2.29929575
H        3.31619984      -4.67482293       0.88430745
H        2.22345030      -6.05196216       0.68098709
H        0.01834844      -2.72786905       0.16710494
H        1.92638716       0.78604198       1.77566564
H        3.33313921      -0.64301593       3.21829911
H        1.57901302      -3.75268002       4.50194452
H        1.54236342      -5.46654636       6.14239330
H        5.14195963      -7.28535900       7.64313552
H        4.96789387      -3.59678979       3.83736802
