178
Properties=species:S:1:pos:R:3 pbc="F F F"
C        1.82363700       1.82363700      -1.82363700
C        2.52095984       1.00609944      -2.90334830
C        1.61143398       0.43286714      -4.00348289
C        0.87498514       1.52427712      -4.77970775
C        0.04068822       0.98517904      -5.94619199
C       -0.90715707       2.04034687      -6.55187435
N       -0.21536338       3.07508759      -7.32556686
C        0.37634507       4.12358909      -6.62503548
O        0.21148285       4.33861822      -5.42712555
C        1.24606784       5.03531738      -7.39813514
C        2.09037491       5.90958644      -6.70461981
C        2.89680291       6.79189726      -7.40907208
C        2.84021930       6.81782265      -8.80313239
C        1.98986492       5.95017626      -9.53193477
C        1.87529799       5.94853894     -10.94593133
Br       2.86303510       7.14213766     -12.05490688
C        1.01553534       5.06243153     -11.60117086
C        0.27369718       4.14219604     -10.86718827
C        0.37655317       4.11429837      -9.47194845
C       -0.36212565       3.07086456      -8.71240066
O       -1.06053736       2.27390322      -9.33032327
C        1.20068059       5.02383375      -8.79664246
H        2.55887484       2.27142676      -1.14781763
H        1.19344343       2.62229122      -2.22031525
H        3.07315075       0.17876956      -2.44101348
H        3.27256569       1.64814265      -3.38070904
H        0.89115715      -0.27200558      -3.57394175
H        2.23576912      -0.14288490      -4.69768797
H        1.61936032       2.23192884      -5.15931588
H        0.20936447       2.06312836      -4.09807030
H       -0.57302296       0.15210540      -5.58109325
H        0.70310673       0.58201163      -6.72137205
H       -1.49004106       2.51943099      -5.75677807
H       -1.62533626       1.51686764      -7.19305659
H        2.12266645       5.90091788      -5.61723612
H        3.56045485       7.46909720      -6.87664522
H        3.47771400       7.53686713      -9.31473769
H        0.92567601       5.07266529     -12.68532853
H       -0.37835493       3.44206146     -11.38762499
C       -1.82363700      -1.82363700      -1.82363700
C       -1.76639855      -3.28075422      -1.38325482
C       -2.42121239      -3.59845925      -0.02811238
C       -3.91171538      -3.26083848      -0.00641616
C       -4.60844928      -3.66155312       1.29794315
C       -6.03153159      -3.08137806       1.42784550
N       -7.00649805      -3.71343718       0.53464415
C       -7.04085483      -3.29167416      -0.79244065
O       -6.44024229      -2.31171173      -1.22527259
C       -7.87413519      -4.08300107      -1.72238409
C       -7.71285498      -3.89244633      -3.09927985
C       -8.50184833      -4.60561882      -3.99030510
C       -9.46766948      -5.48830701      -3.50519784
C       -9.65891162      -5.69613821      -2.11692612
C      -10.63898675      -6.56263201      -1.56814950
Br     -11.84477181      -7.56254738      -2.65276045
C      -10.77200353      -6.72131700      -0.18581720
C       -9.91651210      -6.04417992       0.67761052
C       -8.93316581      -5.19222156       0.16258739
C       -7.97746719      -4.54121970       1.09754733
O       -8.09122512      -4.75292266       2.30045865
C       -8.81425881      -4.98858935      -1.21830864
H       -1.42628931      -1.71429843      -2.83753150
H       -2.83050079      -1.40151478      -1.80403432
H       -0.72263930      -3.61665944      -1.35363506
H       -2.26209612      -3.88611158      -2.15320968
H       -1.90508970      -3.06680715       0.77880352
H       -2.29235051      -4.66938788       0.17116620
H       -4.38835761      -3.77435753      -0.84788990
H       -4.03812793      -2.18305292      -0.14938228
H       -4.01434168      -3.28664934       2.14081532
H       -4.63591240      -4.75431630       1.38373828
H       -6.01486940      -2.00307687       1.23177828
H       -6.34965109      -3.20423890       2.46930203
H       -6.97115088      -3.19218897      -3.47748061
H       -8.37687868      -4.46763369      -5.06168491
H      -10.07555852      -6.01472006      -4.23904025
H      -11.53178863      -7.38051140       0.22863019
H      -10.01433439      -6.18955494       1.75255781
C       -1.82363700       1.82363700       1.82363700
C       -2.10580335       1.15945683       3.16514740
C       -0.90331611       1.02898840       4.11547951
C       -0.30483061       2.38473708       4.48940233
C        0.83014997       2.28818037       5.51402884
C        1.60767116       3.60932004       5.68341527
N        0.85286684       4.64769271       6.39046521
C       -0.08043120       5.38203032       5.66250812
O       -0.19199484       5.34526492       4.43996685
C       -0.97748230       6.26992438       6.43211367
C       -2.11136929       6.79280804       5.80040383
C       -2.95382172       7.64858324       6.49536729
C       -2.64929088       8.00112534       7.81075811
C       -1.50464068       7.49371922       8.47361606
C       -1.13472448       7.83510483       9.79993895
Br      -2.14703236       9.04729147      10.86575581
C        0.00959870       7.29502964      10.39370678
C        0.79349209       6.38439134       9.69218224
C        0.44494645       6.02118669       8.38655975
C        1.24916330       4.98634214       7.68396072
O        2.21204340       4.49334835       8.26238418
C       -0.67432418       6.58564861       7.76118402
H       -2.75289039       1.96279241       1.26243644
H       -1.32989921       2.79350650       1.91264419
H       -2.53049733       0.16156300       3.00087347
H       -2.88289350       1.74386603       3.67465786
H       -0.13308836       0.38962522       3.67037974
H       -1.24161330       0.52167275       5.02728613
H       -1.10791565       3.01095976       4.89172963
H        0.08365595       2.86721926       3.58699982
H        1.53950973       1.52130360       5.17838183
H        0.43103766       1.95732584       6.48020223
H        1.90978651       3.99361042       4.70234409
H        2.53147403       3.38676684       6.22929515
H       -2.34021117       6.53104663       4.76956266
H       -3.84048068       8.05291167       6.01280493
H       -3.32849707       8.68794239       8.31287937
H        0.29253899       7.56813834      11.40807048
H        1.67207526       5.95326986      10.17013691
C        1.82363700      -1.82363700       1.82363700
C        1.64310010      -3.29863207       1.48867541
C        2.18183989      -3.74663981       0.11930432
C        3.68592223      -3.51399552      -0.02094772
C        4.26455579      -4.04426366      -1.33676020
C        5.70964785      -3.57245122      -1.59703492
N        6.70099014      -4.21126262      -0.72696168
C        6.85312919      -3.70866109       0.56317936
O        6.34761825      -2.66413889       0.96546948
C        7.69571958      -4.49397795       1.48982283
C        7.64167833      -4.20497201       2.85793081
C        8.44252001      -4.91193970       3.74331254
C        9.31428262      -5.88798313       3.25890859
C        9.39626720      -6.19697077       1.87873799
C       10.27889756      -7.16194809       1.32892261
Br      11.48957637      -8.17053718       2.39996609
C       10.30647010      -7.41763723      -0.04496960
C        9.43900448      -6.74022233      -0.89614532
C        8.54987376      -5.79165551      -0.37872929
C        7.57606798      -5.13798098      -1.29290940
O        7.59335879      -5.43363618      -2.48330584
C        8.53913103      -5.49227590       0.98974988
H        1.50449908      -1.62258326       2.85103690
H        2.85177175      -1.47360112       1.71067703
H        0.58038650      -3.56345846       1.54908884
H        2.15055591      -3.88592900       2.26493248
H        1.64679356      -3.23369286      -0.68739309
H        1.97126110      -4.81679096       0.00252012
H        4.18519148      -4.00397024       0.82144332
H        3.89064462      -2.44045890       0.03945960
H        3.63935961      -3.68433641      -2.16352032
H        4.21598679      -5.13958807      -1.34908444
H        5.77559678      -2.48519765      -1.47462643
H        5.94715234      -3.78330702      -2.64587140
H        6.97402979      -3.43275822       3.23403245
H        8.40033269      -4.69733902       4.80852556
H        9.93602100      -6.40668320       3.98661463
H       10.99226876      -8.15253066      -0.46112958
H        9.45344617      -6.96054940      -1.96266405
C       -0.00445707       0.01189536      -1.78238275
H       -0.66409135       0.67374010      -2.43557963
H        0.65740317      -0.63156657      -2.45157240
C       -0.90989263      -0.90692880      -0.91072765
C        0.90977584       0.90977584      -0.90977584
C       -0.00465871       1.77757030       0.00794375
H       -0.66225468       2.44313916      -0.64384735
H        0.64322798       2.43503045       0.67728295
C       -1.78241447       0.00034974      -0.00472694
H       -2.45427497      -0.65498947       0.64260836
H       -2.43311707       0.67328779      -0.65473579
C       -0.91132561       0.90220522       0.91563759
C       -0.01476271      -0.02253852       1.78660255
H       -0.67934791      -0.69751639       2.42135241
H        0.63392994       0.61504881       2.47327442
C        0.01484550      -1.77751727      -0.01636693
H        0.67870853      -2.42144646      -0.68295456
H       -0.62264859      -2.45592969       0.64226336
C        1.78714474       0.01002794       0.00389507
H        2.44202412       0.67113390       0.66197326
H        2.45385902      -0.65136977      -0.64189061
C        0.91606151      -0.90478549       0.90901405
