142
Properties=species:S:1:pos:R:3 pbc="F F F"
C        1.79153136       1.79153136      -1.79153136
C        1.20467225       2.75343073      -2.61297910
C        2.00897354       3.56067642      -3.42372886
C        3.40153262       3.39568637      -3.41977348
C        3.98029904       2.43857192      -2.57493476
C        3.17586792       1.63375763      -1.76382871
C        4.30304220       4.22351683      -4.27199355
O        5.47852145       4.37479921      -3.96393620
N        3.74375919       4.75910872      -5.41052821
C        4.54341333       5.50280369      -6.35540648
C        3.66128643       6.39764463      -7.18429500
C        3.29038837       7.66142392      -6.70050681
C        2.43814640       8.48316132      -7.43970013
C        1.93919367       8.04692038      -8.66627313
C        2.29526815       6.78835123      -9.14713799
C        3.14855377       5.96204506      -8.41463577
H        0.12563517       2.88797159      -2.62364558
H        1.53272770       4.32694684      -4.02890578
H        5.06186849       2.31607672      -2.54876597
H        3.63899761       0.89287329      -1.11720117
H        2.84859444       4.42086214      -5.73292322
H        5.07496349       4.78244643      -6.98809991
H        5.30399923       6.09086440      -5.82897023
H        3.66487783       8.00813884      -5.73845268
H        2.16102473       9.46214162      -7.05640114
H        1.27448080       8.69167348      -9.23498628
H        3.41434345       4.97944435      -8.79763757
C        1.77122559       6.33286307     -10.40868859
C        1.33233995       5.95139173     -11.46523723
Br       0.62269899       5.33458484     -13.17358701
C       -1.79153136      -1.79153136      -1.79153136
C       -3.16797166      -1.57184191      -1.83126850
C       -3.97866860      -2.37920006      -2.63551016
C       -3.41075751      -3.41488152      -3.39135343
C       -2.02347580      -3.61263763      -3.35769228
C       -1.21409116      -2.80415844      -2.55520466
C       -4.23137236      -4.31000005      -4.25718017
O       -3.71853879      -4.89725457      -5.20146351
N       -5.55593707      -4.44953073      -3.90792832
C       -6.42314623      -5.35858459      -4.61989268
C       -7.86083736      -4.95727419      -4.42511451
C       -8.43270891      -3.97353550      -5.24607468
C       -9.75141784      -3.56147411      -5.04811590
C      -10.51026092      -4.12103830      -4.02108796
C       -9.94450087      -5.09075178      -3.19550471
C       -8.62731327      -5.50925098      -3.38867036
H       -3.61757988      -0.77186817      -1.24780429
H       -5.04332110      -2.16723897      -2.67802024
H       -1.56961439      -4.40070745      -3.95638934
H       -0.14039585      -2.97250882      -2.53616741
H       -5.86896836      -4.13121969      -3.00219176
H       -6.24305421      -6.36866170      -4.23379393
H       -6.16691994      -5.37136359      -5.68555033
H       -7.84595578      -3.52122808      -6.04428548
H      -10.18500699      -2.80128534      -5.69327516
H      -11.53566851      -3.79348099      -3.87199106
H       -8.19500853      -6.26245208      -2.73396478
C      -10.72432842      -5.66086039      -2.12758844
C      -11.37743398      -6.13832636      -1.23320856
Br     -12.43345045      -6.91034845       0.21292806
C       -1.79153136       1.79153136       1.79153136
C       -1.48508184       3.14346182       1.94253841
C       -2.28881371       3.95313433       2.75143079
C       -3.39358695       3.40474177       3.41866374
C       -3.70217149       2.04876924       3.24286499
C       -2.89952063       1.24103112       2.43290252
C       -4.27657947       4.22193099       4.30004211
O       -5.42807215       3.86849553       4.52068919
N       -3.71022149       5.34708114       4.85609348
C       -4.44240912       6.16432534       5.79488904
C       -3.85417872       7.54921129       5.83983604
C       -4.24682925       8.50991479       4.89557505
C       -3.67741863       9.78417233       4.89941689
C       -2.70201239      10.10938405       5.84099073
C       -2.30001224       9.15611292       6.77463220
C       -2.86630720       7.88067783       6.77824957
H       -0.62980864       3.57744786       1.42999584
H       -2.05168538       5.01067704       2.82621788
H       -4.56950127       1.61729889       3.73991102
H       -3.14902355       0.19026151       2.30978701
H       -2.70797639       5.46690007       4.82750334
H       -4.38490642       5.68264048       6.77796294
H       -5.50217033       6.20387303       5.51779050
H       -4.99966188       8.26361546       4.14819201
H       -3.99269615      10.52158227       4.16528907
H       -2.26189702      11.10299382       5.83624971
H       -2.53991786       7.14338724       7.50812029
C       -1.28456577       9.48801887       7.74019262
C       -0.43412935       9.76599009       8.54884946
Br       0.94095441      10.21544606       9.85637919
C        1.79153136      -1.79153136       1.79153136
C        3.15913078      -1.87840339       1.53354790
C        3.96899951      -2.68706065       2.33731866
C        3.40572224      -3.41819883       3.39307139
C        2.03301911      -3.30681242       3.65397419
C        1.22499790      -2.49705570       2.85140066
C        4.22294754      -4.30209682       4.27350822
O        3.83477934      -4.58173034       5.40074718
N        5.39016590      -4.79173259       3.73149763
C        6.21549868      -5.72695964       4.45916518
C        7.62256360      -5.69546423       3.92519822
C        8.52922332      -4.73151087       4.39158490
C        9.82347346      -4.66395341       3.87358098
C       10.22295458      -5.55285350       2.87657910
C        9.32365114      -6.50554731       2.40155891
C        8.02864113      -6.58047374       2.91611974
H        3.60478486      -1.31602057       0.71644691
H        5.03697628      -2.71184744       2.13975659
H        1.58879928      -3.85410565       4.48380624
H        0.16138820      -2.42424727       3.06343660
H        5.54700383      -4.71873645       2.73663953
H        5.77585109      -6.72467401       4.34498474
H        6.20342502      -5.49092451       5.52948433
H        8.22477273      -4.02463375       5.16206287
H       10.51849808      -3.91527697       4.24579244
H       11.23169731      -5.49260481       2.47683844
H        7.33399140      -7.32445299       2.53298099
C        9.73230205      -7.41654867       1.36392653
C       10.07454718      -8.17951231       0.49490941
Br      10.62792862      -9.41315999      -0.91021777
C       -0.00445707       0.01189536      -1.78238275
H       -0.66409135       0.67374010      -2.43557963
H        0.65740317      -0.63156657      -2.45157240
C       -0.90989263      -0.90692880      -0.91072765
C        0.90977584       0.90977584      -0.90977584
C       -0.00465871       1.77757030       0.00794375
H       -0.66225468       2.44313916      -0.64384735
H        0.64322798       2.43503045       0.67728295
C       -1.78241447       0.00034974      -0.00472694
H       -2.45427497      -0.65498947       0.64260836
H       -2.43311707       0.67328779      -0.65473579
C       -0.91132561       0.90220522       0.91563759
C       -0.01476271      -0.02253852       1.78660255
H       -0.67934791      -0.69751639       2.42135241
H        0.63392994       0.61504881       2.47327442
C        0.01484550      -1.77751727      -0.01636693
H        0.67870853      -2.42144646      -0.68295456
H       -0.62264859      -2.45592969       0.64226336
C        1.78714474       0.01002794       0.00389507
H        2.44202412       0.67113390       0.66197326
H        2.45385902      -0.65136977      -0.64189061
C        0.91606151      -0.90478549       0.90901405
