134
Properties=species:S:1:pos:R:3 pbc="F F F"
C        1.79153136       1.79153136      -1.79153136
C        1.20467225       2.75343073      -2.61297910
C        2.00897354       3.56067642      -3.42372886
C        3.40153262       3.39568637      -3.41977348
C        3.98029904       2.43857192      -2.57493476
C        3.17586792       1.63375763      -1.76382871
C        4.30304220       4.22351683      -4.27199355
O        5.47852145       4.37479921      -3.96393620
N        3.74375919       4.75910872      -5.41052821
C        4.54341333       5.50280369      -6.35540648
C        3.66128643       6.39764463      -7.18429500
C        3.29038837       7.66142392      -6.70050681
C        2.43814640       8.48316132      -7.43970013
C        1.93919367       8.04692038      -8.66627313
C        2.29526815       6.78835123      -9.14713799
Br       1.60713578       6.19023922     -10.80370919
C        3.14855377       5.96204506      -8.41463577
H        0.12563517       2.88797159      -2.62364558
H        1.53272770       4.32694684      -4.02890578
H        5.06186849       2.31607672      -2.54876597
H        3.63899761       0.89287329      -1.11720117
H        2.84859444       4.42086214      -5.73292322
H        5.07496349       4.78244643      -6.98809991
H        5.30399923       6.09086440      -5.82897023
H        3.66487783       8.00813884      -5.73845268
H        2.16102473       9.46214162      -7.05640114
H        1.27448080       8.69167348      -9.23498628
H        3.41434345       4.97944435      -8.79763757
C       -1.79153136      -1.79153136      -1.79153136
C       -3.17936588      -1.70027300      -1.69144319
C       -3.98974092      -2.50821547      -2.49542243
C       -3.40856834      -3.41652156      -3.39190256
C       -2.01244772      -3.48447833      -3.49687967
C       -1.20363664      -2.67539671      -2.69442091
C       -4.22702785      -4.30712749      -4.26439724
O       -3.75696940      -4.75963991      -5.30064755
N       -5.49567051      -4.60079241      -3.81693320
C       -6.34460148      -5.52289485      -4.53412717
C       -7.78669304      -5.27752643      -4.17900659
C       -8.51629757      -4.28508443      -4.85093709
C       -9.84101172      -4.01808567      -4.50191047
C      -10.44830716      -4.73334924      -3.47073077
C       -9.72553701      -5.71285756      -2.79236279
Br     -10.54405186      -6.67305436      -1.38397796
C       -8.40132343      -5.98679846      -3.13711272
H       -3.63916140      -0.99968896      -0.99840198
H       -5.06794537      -2.39492334      -2.42571160
H       -1.55090018      -4.17154032      -4.20427068
H       -0.12244369      -2.74255720      -2.78407118
H       -5.74800994      -4.39280942      -2.86156045
H       -6.04237258      -6.54096211      -4.26217514
H       -6.19006772      -5.41942816      -5.61433798
H       -8.04880515      -3.71219548      -5.65046872
H      -10.39757472      -3.24945647      -5.03253629
H      -11.47945730      -4.51823219      -3.20345107
H       -7.84573510      -6.74944230      -2.59624798
C       -1.79153136       1.79153136       1.79153136
C       -1.31336005       3.02480337       2.23291866
C       -2.11712166       3.83350825       3.04274891
C       -3.39646035       3.40055437       3.41997775
C       -3.87278767       2.16756806       2.95344998
C       -3.06958170       1.36110416       2.14276840
C       -4.28929488       4.21990415       4.28935355
O       -5.50218493       4.05359846       4.26147348
N       -3.66787309       5.12299145       5.12253159
C       -4.42478965       5.90593459       6.07089926
C       -3.64852633       7.13594628       6.45875345
C       -3.70885703       8.28610843       5.65735362
C       -2.96038309       9.41848471       5.98214005
C       -2.13562957       9.41057998       7.10617762
C       -2.06313130       8.26755824       7.90006782
Br      -0.93349165       8.25123317       9.41635936
C       -2.81012740       7.13231895       7.58278826
H       -0.32222353       3.36853009       1.94649872
H       -1.73765362       4.80538177       3.34554492
H       -4.87240528       1.83087904       3.22342685
H       -3.45117177       0.40551835       1.79238196
H       -2.67105319       5.06020931       5.27111730
H       -4.62317934       5.27626402       6.94606647
H       -5.39692706       6.18107907       5.64582774
H       -4.34090543       8.29995981       4.77060411
H       -3.01846734      10.30530006       5.35580009
H       -1.55435893      10.29546047       7.35132115
H       -2.74045626       6.24424060       8.20672852
C        1.79153136      -1.79153136       1.79153136
C        3.17249779      -1.80015336       1.59843092
C        3.98259637      -2.60850851       2.40227395
C        3.40694886      -3.41753626       3.39250735
C        2.01952569      -3.38484753       3.58943249
C        1.21115821      -2.57536743       2.78692862
C        4.22449823      -4.30443675       4.26961759
O        3.79755335      -4.65827323       5.36143029
N        5.43923578      -4.71019834       3.76396200
C        6.27471705      -5.64027793       4.48662852
C        7.70227931      -5.51513127       4.02581547
C        8.53634482      -4.53362345       4.58235082
C        9.84879764      -4.37867266       4.13353756
C       10.33927300      -5.19655464       3.11655954
C        9.51239424      -6.16604759       2.55231554
Br      10.17245386      -7.26573754       1.16289278
C        8.19971594      -6.32821372       2.99730494
H        3.62787684      -1.17701726       0.83235824
H        5.05867241      -2.57248673       2.25742118
H        1.56421634      -3.99349855       4.36899628
H        0.13634747      -2.56399822       2.94872638
H        5.63943312      -4.58014547       2.78280121
H        5.89146150      -6.65083902       4.30320932
H        6.19988692      -5.45891681       5.56503013
H        8.16056680      -3.88147317       5.36942937
H       10.48698673      -3.61729739       4.57528337
H       11.36163291      -5.06840918       2.77109847
H        7.56218636      -7.08433861       2.54490041
C       -0.00445707       0.01189536      -1.78238275
H       -0.66409135       0.67374010      -2.43557963
H        0.65740317      -0.63156657      -2.45157240
C       -0.90989263      -0.90692880      -0.91072765
C        0.90977584       0.90977584      -0.90977584
C       -0.00465871       1.77757030       0.00794375
H       -0.66225468       2.44313916      -0.64384735
H        0.64322798       2.43503045       0.67728295
C       -1.78241447       0.00034974      -0.00472694
H       -2.45427497      -0.65498947       0.64260836
H       -2.43311707       0.67328779      -0.65473579
C       -0.91132561       0.90220522       0.91563759
C       -0.01476271      -0.02253852       1.78660255
H       -0.67934791      -0.69751639       2.42135241
H        0.63392994       0.61504881       2.47327442
C        0.01484550      -1.77751727      -0.01636693
H        0.67870853      -2.42144646      -0.68295456
H       -0.62264859      -2.45592969       0.64226336
C        1.78714474       0.01002794       0.00389507
H        2.44202412       0.67113390       0.66197326
H        2.45385902      -0.65136977      -0.64189061
C        0.91606151      -0.90478549       0.90901405
