198
Properties=species:S:1:pos:R:3 pbc="F F F"
C        2.79076184       6.39309400      -0.68252374
C        2.10383712       7.52668142      -0.89285251
C        2.44712944       8.63249617      -1.85894108
N        3.15574806       8.20582509      -3.05713004
N        4.50708878       8.16073700      -3.02085397
C        4.78776121       7.44271844      -4.10121251
S        6.40019517       6.89399359      -4.44004796
C        6.05201866       5.35768854      -5.33499939
C        5.55695585       4.26685867      -4.39348818
O        6.33958451       3.45343843      -3.90834082
N        4.18862425       4.30626249      -4.17226429
C        3.42544591       3.42506309      -3.38056313
C        3.89706968       2.19944056      -2.90671144
C        3.08185058       1.38202394      -2.11429257
C        1.79106422       1.79106422      -1.79106422
C        1.30173992       3.00300609      -2.26563455
C        2.11621936       3.81061091      -3.06409222
N        3.70071051       7.08464342      -4.84682083
C        2.67587221       7.66320840      -4.23453059
C        1.29206384       7.60180977      -4.72763171
C        0.34383357       8.60683812      -4.49985431
C       -0.96299082       8.48896543      -4.99257736
C       -1.32381351       7.37937023      -5.75206166
C       -0.38655302       6.39464693      -6.03766673
C        0.91253842       6.51298769      -5.53460239
H        2.45942813       5.66686546       0.05415476
H        3.71318219       6.16131892      -1.20937111
H        1.21065407       7.69488522      -0.29408020
H        3.06369092       9.38632939      -1.35539356
H        1.53123569       9.13722185      -2.16282630
H        6.98280190       5.00566901      -5.79315461
H        5.34047635       5.51605318      -6.15175906
H        3.71235831       5.13917885      -4.51219967
H        4.89515236       1.84356340      -3.14521304
H        3.47035107       0.43220067      -1.75601773
H        0.29765854       3.33421783      -2.01527682
H        1.71834294       4.75993616      -3.40551874
H        0.59911116       9.52116461      -3.97311298
H       -1.68465672       9.27746573      -4.79272419
H       -0.64725877       5.53819308      -6.65450323
H        1.63608768       5.74059566      -5.79007838
C       -2.66601284       7.26201712      -6.26032262
C       -3.79010478       7.16373389      -6.68599118
Br      -5.60766637       7.00481822      -7.37426123
C       -4.39140103      -5.46271798      -0.01226055
C       -4.05919876      -6.73239993       0.26822764
C       -4.49391208      -7.97151075      -0.47314386
N       -4.73854519      -7.78404022      -1.89611778
N       -5.97963987      -7.41852225      -2.29051763
C       -5.76675745      -7.02491464      -3.54002007
S       -7.00633391      -6.25023790      -4.47766491
C       -6.00346680      -5.19000274      -5.55123705
C       -5.42768475      -4.00742931      -4.78218865
O       -6.01067173      -2.92606638      -4.76462566
N       -4.22874877      -4.29209329      -4.14630897
C       -3.43571412      -3.41122841      -3.38412961
C       -3.60185162      -2.02506387      -3.37630619
C       -2.78067743      -1.21486055      -2.58262911
C       -1.79106422      -1.79106422      -1.79106422
C       -1.60420549      -3.16892631      -1.79724876
C       -2.42026900      -3.97211468      -2.59853880
N       -4.48078701      -7.17646341      -3.97492433
C       -3.85577313      -7.75822013      -2.95961794
C       -2.44611746      -8.17413016      -3.00125768
C       -1.93452919      -9.25035279      -2.26564402
C       -0.57853474      -9.59623296      -2.34378428
C        0.27283851      -8.89072317      -3.18973372
C       -0.22152019      -7.85363378      -3.97060667
C       -1.57291861      -7.50678050      -3.88042940
H       -4.03188588      -4.64187760       0.60162465
H       -5.04882963      -5.19818646      -0.83685613
H       -3.42574904      -6.90930259       1.13543215
H       -5.41208488      -8.36870384      -0.02462514
H       -3.73457676      -8.74294650      -0.35376059
H       -6.64736285      -4.79138991      -6.34287276
H       -5.20697082      -5.75305436      -6.04826341
H       -3.96801133      -5.27568910      -4.12003640
H       -4.35747129      -1.53946706      -3.98699044
H       -2.92858151      -0.13806174      -2.59192623
H       -0.83817644      -3.62949477      -1.17948198
H       -2.26746061      -5.04541931      -2.57091791
H       -2.57435731      -9.87204403      -1.64698742
H       -0.20260691     -10.42890177      -1.75402451
H        0.42628773      -7.31441740      -4.65730787
H       -1.94268787      -6.70571786      -4.51835599
C        1.66490194      -9.25006856      -3.27116030
C        2.83075507      -9.55102032      -3.33935505
Br       4.71584097     -10.03763386      -3.44962020
C       -1.73429616       1.51137268       6.62071073
C       -2.36652037       0.68676466       7.47008601
C       -3.49552330       1.03642487       8.40661851
N       -4.37200925       2.10291371       7.94378023
N       -4.05118539       3.37853246       8.25896190
C       -4.82793431       4.06969475       7.43406310
S       -4.67757561       5.79152717       7.26513394
C       -5.19502920       6.00734950       5.54232789
C       -4.12398844       5.51772113       4.57559314
O       -3.29584184       6.29630567       4.10921626
N       -4.20367910       4.16045302       4.30301890
C       -3.38297110       3.41388670       3.43421434
C       -2.52187776       3.98561669       2.49572723
C       -1.72761546       3.17675619       1.67379544
C       -1.79106422       1.79106422       1.79106422
C       -2.65288954       1.20559165       2.71189937
C       -3.45045977       2.01731542       3.52314729
N       -5.66017422       3.30952580       6.66247473
C       -5.44056444       2.06549445       7.06755231
C       -6.17168922       0.89932717       6.55048892
C       -6.41010178      -0.25942949       7.29985372
C       -7.11056742      -1.34152355       6.74950811
C       -7.61332989      -1.25956400       5.45385250
C       -7.43701073      -0.10030129       4.70905120
C       -6.72847584       0.97171532       5.25993735
H       -0.91787360       1.15527009       5.99899514
H       -1.98398421       2.56601141       6.53387659
H       -2.02649531      -0.34598712       7.51911129
H       -3.09013829       1.33464430       9.38063127
H       -4.09960408       0.14781581       8.58386396
H       -5.34698455       7.07653325       5.35810772
H       -6.15196261       5.51510844       5.34121754
H       -4.83746142       3.62950131       4.89677410
H       -2.45175973       5.06217394       2.36999513
H       -1.06405972       3.64387086       0.95063889
H       -2.70663878       0.12531412       2.81520029
H       -4.09988645       1.53708149       4.24682990
H       -6.09792167      -0.34097253       8.33643962
H       -7.27311675      -2.23508677       7.34750322
H       -7.85036238      -0.01229575       3.70737092
H       -6.62223555       1.87820176       4.66632441
C       -8.33579600      -2.37113396       4.89166487
C       -8.94086138      -3.30207380       4.42083272
Br      -9.91920091      -4.80732479       3.65953697
C        1.08336620      -2.22569311       6.55732026
C        1.47638199      -1.45995571       7.58703334
C        2.51648658      -1.79625507       8.62582503
N        3.59012005      -2.66453822       8.16404491
N        3.42079980      -4.00265798       8.26522197
C        4.38785036      -4.46265783       7.48118397
S        4.51192732      -6.14669231       7.07561709
C        5.26912167      -6.04259325       5.43299167
C        4.26937413      -5.55722355       4.39070503
O        3.62893971      -6.35826160       3.71416246
N        4.18482243      -4.17570043       4.30662817
C        3.38097757      -3.42075427       3.42934029
C        2.73791268      -3.95437464       2.31093436
C        1.94503130      -3.14176662       1.49136918
C        1.79106422      -1.79106422       1.79106422
C        2.43508459      -1.24130091       2.89399506
C        3.23298040      -2.05474711       3.70319498
N        5.19168191      -3.49925887       6.94123397
C        4.74411902      -2.36521860       7.46427358
C        5.35750918      -1.05322220       7.21077392
C        5.32819416       0.00508435       8.12741619
C        5.92793124       1.23553969       7.82616043
C        6.59718606       1.40705465       6.61748697
C        6.68692627       0.35544824       5.71428261
C        6.07773825      -0.86621856       6.01617170
H        0.30919539      -1.88925732       5.87368611
H        1.49263517      -3.21633428       6.37490277
H        0.98643636      -0.49673148       7.71645165
H        2.03874915      -2.28175106       9.48491366
H        2.95766491      -0.87359852       9.00002041
H        5.59693134      -7.04572488       5.13896930
H        6.16203459      -5.40922260       5.43703140
H        4.65440102      -3.66076757       5.04856824
H        2.84148037      -5.00135209       2.04109634
H        1.45333994      -3.57902215       0.62620738
H        2.31775371      -0.18948500       3.13991449
H        3.70883437      -1.60648321       4.56848026
H        4.87880285      -0.10506447       9.10952143
H        5.88187642       2.04602012       8.54967691
H        7.23211316       0.46698940       4.78031379
H        6.18036987      -1.68288908       5.30350277
C        7.21572642       2.67093916       6.31153964
C        7.73375398       3.72944243       6.05530875
Br       8.57136072       5.44095271       5.64100507
C       -0.00445707       0.01189536      -1.78238275
H       -0.66409135       0.67374010      -2.43557963
H        0.65740317      -0.63156657      -2.45157240
C       -0.90989263      -0.90692880      -0.91072765
C        0.90977584       0.90977584      -0.90977584
C       -0.00465871       1.77757030       0.00794375
H       -0.66225468       2.44313916      -0.64384735
H        0.64322798       2.43503045       0.67728295
C       -1.78241447       0.00034974      -0.00472694
H       -2.45427497      -0.65498947       0.64260836
H       -2.43311707       0.67328779      -0.65473579
C       -0.91132561       0.90220522       0.91563759
C       -0.01476271      -0.02253852       1.78660255
H       -0.67934791      -0.69751639       2.42135241
H        0.63392994       0.61504881       2.47327442
C        0.01484550      -1.77751727      -0.01636693
H        0.67870853      -2.42144646      -0.68295456
H       -0.62264859      -2.45592969       0.64226336
C        1.78714474       0.01002794       0.00389507
H        2.44202412       0.67113390       0.66197326
H        2.45385902      -0.65136977      -0.64189061
C        0.91606151      -0.90478549       0.90901405
