182
Properties=species:S:1:pos:R:3 pbc="F F F"
C       -1.32834618       6.45550469      -3.36981420
C       -1.70879514       6.98794967      -4.54025098
C       -1.07743541       6.83478101      -5.89844324
N        0.01479758       5.88054368      -6.03068162
N        1.21697847       6.34983810      -6.42728124
C        1.96421935       5.25201636      -6.41014374
S        3.64925790       5.30684650      -6.83448110
C        4.28991803       3.97105042      -5.79574157
C        4.13606163       4.31442707      -4.32556523
O        4.63029390       5.32428913      -3.82208054
C        3.34647733       3.40626297      -3.45311520
C        3.31694338       2.02137945      -3.65234968
C        2.53498915       1.21410968      -2.82096253
C        1.79136036       1.79136036      -1.79136036
C        1.83501741       3.16661713      -1.57048348
C        2.61849463       3.97329484      -2.39772709
N        1.29937353       4.11343543      -6.05838444
C        0.04629028       4.50805115      -5.86977070
C       -1.05371516       3.61366100      -5.47699046
C       -2.38914908       3.80985733      -5.84970115
C       -3.39535089       2.93382266      -5.42096744
C       -3.06987203       1.83193053      -4.63546484
Br      -4.42775417       0.65131060      -4.06092196
C       -1.74749804       1.59232205      -4.28335048
C       -0.75049821       2.47684298      -4.70862899
H       -1.88928523       6.66788292      -2.46307991
H       -0.45972358       5.81254781      -3.26505919
H       -2.58225904       7.63659269      -4.53062154
H       -0.68961918       7.81550869      -6.20183412
H       -1.82920874       6.56328344      -6.64594326
H        5.35734954       3.83634369      -5.99632551
H        3.78781159       3.04181297      -6.06805290
H        3.89718837       1.54733223      -4.43867635
H        2.50747468       0.14019259      -2.98872025
H        1.26437751       3.62045211      -0.76439724
H        2.65248129       5.04881321      -2.22686847
H       -2.68530157       4.62956307      -6.49466216
H       -4.42674447       3.11737864      -5.71429951
H       -1.47750774       0.72657462      -3.68454869
H        0.28191260       2.27246575      -4.43334172
C       -7.35220364      -0.36800052      -0.77676854
C       -8.43667358      -1.03185493      -0.35087701
C       -8.72958092      -2.50708713      -0.41912079
N       -7.66258485      -3.38600670      -0.87743133
N       -7.88512026      -4.12137670      -1.98760084
C       -6.73083620      -4.76180395      -2.13373929
S       -6.47418655      -5.85759488      -3.45880406
C       -4.69330066      -5.65624816      -3.70716121
C       -4.37155278      -4.24413023      -4.16037092
O       -4.85583463      -3.74408649      -5.17674246
C       -3.44468106      -3.41915545      -3.34201899
C       -2.37150103      -3.97929231      -2.63987917
C       -1.54605152      -3.16294622      -1.86106361
C       -1.79136036      -1.79136036      -1.79136036
C       -2.84260006      -1.22205216      -2.50746580
C       -3.66525194      -2.03574882      -3.28851580
N       -5.80539133      -4.50016219      -1.16563987
C       -6.42108548      -3.66530811      -0.33771855
C       -5.81098561      -3.10311402       0.87716334
C       -6.53386440      -2.76404132       2.02749633
C       -5.89579025      -2.20800569       3.14435673
C       -4.51798209      -2.01151535       3.13197411
Br      -3.66005059      -1.26408496       4.63965716
C       -3.77142336      -2.37485688       2.01810575
C       -4.41781842      -2.92137774       0.90422240
H       -7.29052860       0.71138384      -0.66253284
H       -6.50784164      -0.85561129      -1.25443050
H       -9.23613861      -0.44371133       0.09489475
H       -9.58094568      -2.65017867      -1.09659927
H       -9.05390163      -2.88246396       0.55634764
H       -4.35697536      -6.34226406      -4.49077931
H       -4.17617119      -5.93375459      -2.78775168
H       -2.15249104      -5.04200867      -2.68869724
H       -0.72112147      -3.60645755      -1.30880849
H       -3.03288255      -0.15283199      -2.46351232
H       -4.48825773      -1.59204015      -3.84786509
H       -7.60171327      -2.93731816       2.10010777
H       -6.48361600      -1.94139688       4.02007920
H       -2.69292640      -2.24237435       2.00168518
H       -3.82015630      -3.20978462       0.04222086
C        1.57664238       5.92253619       4.15107890
C        1.87959408       6.29622719       5.40277240
C        1.09521473       6.08123160       6.66977196
N       -0.09164400       5.24062702       6.59375186
N       -1.27847223       5.79506662       6.92055895
C       -2.12181023       4.78995899       6.71461022
S       -3.82934147       4.98305011       6.97819392
C       -4.48117771       3.82940941       5.74612291
C       -4.13909923       4.29433582       4.34261888
O       -4.47731122       5.39488863       3.90446373
C       -3.35209326       3.39537811       3.45838414
C       -3.47741668       2.00253086       3.51072497
C       -2.69262826       1.20028198       2.67715112
C       -1.79136036       1.79136036       1.79136036
C       -1.67863248       3.17826992       1.71521562
C       -2.46454326       3.98049411       2.54447917
N       -1.53594982       3.62615425       6.30908932
C       -0.23776609       3.90121654       6.28512950
C        0.80662012       2.93661746       5.90693896
C        2.10734684       2.95250502       6.42525121
C        3.06450290       2.01953415       6.00440795
C        2.72009155       1.03938746       5.07822742
Br       4.01150918      -0.21847395       4.51446153
C        1.42591432       0.97716285       4.57692597
C        0.47905011       1.91788335       4.99614052
H        2.24889188       6.16017958       3.33038990
H        0.66630881       5.38895260       3.89523963
H        2.80746289       6.84593218       5.54648590
H        0.77347349       7.06393649       7.03726063
H        1.73335110       5.66043513       7.45293392
H       -5.57189316       3.79061215       5.82751342
H       -4.10276241       2.83005776       5.96485729
H       -4.18112067       1.51958124       4.18249504
H       -2.78666072       0.11842118       2.73130562
H       -0.98427260       3.64414314       1.02081112
H       -2.37643108       5.06492822       2.48680368
H        2.41055912       3.67004744       7.17943534
H        4.07159007       2.06297316       6.41355058
H        1.13923903       0.20682338       3.86603121
H       -0.53297208       1.85221054       4.60253745
C        7.12819064      -1.91845104      -0.54966897
C        7.93957549      -2.88433794      -1.00450791
C        7.95876302      -4.34759497      -0.65056916
N        6.88272955      -4.85196465       0.19132868
N        7.21601642      -5.39768924       1.38039214
C        6.02861974      -5.71258621       1.88517350
S        5.88719797      -6.45039198       3.45299555
C        4.28327006      -5.79688254       3.97655743
C        4.34621653      -4.28949715       4.14034026
O        5.13875971      -3.73481449       4.90308937
C        3.42554517      -3.43954509       3.34076525
C        2.13297047      -3.85555043       3.00215161
C        1.31667990      -3.03005630       2.22332516
C        1.79136036      -1.79136036       1.79136036
C        3.06796820      -1.35887684       2.14527298
C        3.88260562      -2.18077254       2.92613839
N        4.96894491      -5.42858990       1.07365858
C        5.51995184      -4.93034705      -0.02618676
C        4.75999618      -4.47920535      -1.20226524
C        5.24534947      -4.53942129      -2.51436136
C        4.48037943      -4.06928589      -3.59022611
C        3.20522497      -3.55849388      -3.36619551
Br       2.17524127      -2.92767504      -4.81843791
C        2.68423536      -3.52274898      -2.07880985
C        3.45823405      -3.98630033      -1.00956061
H        7.24483188      -0.89542623      -0.89858051
H        6.34239336      -2.09763781       0.17785225
H        8.70878108      -2.59278340      -1.71660929
H        8.90224072      -4.55561979      -0.13013689
H        7.97073416      -4.96401644      -1.55473265
H        4.01641105      -6.22646566       4.94714202
H        3.52363713      -6.11339216       3.26064817
H        1.73635562      -4.80953183       3.33730950
H        0.31776163      -3.36453234       1.95409354
H        3.43951966      -0.39108589       1.81862131
H        4.88137715      -1.84433158       3.20245425
H        6.21502852      -4.96713245      -2.74323731
H        4.88725559      -4.11577321      -4.59809512
H        1.68366660      -3.14200840      -1.89205943
H        3.03469323      -3.96089248      -0.00786564
C       -0.00445707       0.01189536      -1.78238275
H       -0.66409135       0.67374010      -2.43557963
H        0.65740317      -0.63156657      -2.45157240
C       -0.90989263      -0.90692880      -0.91072765
C        0.90977584       0.90977584      -0.90977584
C       -0.00465871       1.77757030       0.00794375
H       -0.66225468       2.44313916      -0.64384735
H        0.64322798       2.43503045       0.67728295
C       -1.78241447       0.00034974      -0.00472694
H       -2.45427497      -0.65498947       0.64260836
H       -2.43311707       0.67328779      -0.65473579
C       -0.91132561       0.90220522       0.91563759
C       -0.01476271      -0.02253852       1.78660255
H       -0.67934791      -0.69751639       2.42135241
H        0.63392994       0.61504881       2.47327442
C        0.01484550      -1.77751727      -0.01636693
H        0.67870853      -2.42144646      -0.68295456
H       -0.62264859      -2.45592969       0.64226336
C        1.78714474       0.01002794       0.00389507
H        2.44202412       0.67113390       0.66197326
H        2.45385902      -0.65136977      -0.64189061
C        0.91606151      -0.90478549       0.90901405
