194
Properties=species:S:1:pos:R:3 pbc="F F F"
C       -0.40570474       7.20720118      -6.74457366
C        0.27194871       7.38560671      -7.88648402
C        1.74288598       7.22828023      -8.08301725
N        2.40271986       5.94351604      -7.85726610
N        3.69861008       6.05451146      -7.44028123
C        4.18655194       4.85193518      -7.71690486
S        5.86714842       4.47466655      -7.52263878
C        6.02151964       4.74308157      -5.74025333
C        5.30876187       3.63788736      -4.96932697
O        5.71334861       2.48709879      -5.02284189
N        4.24614018       4.10862771      -4.20614898
C        3.42806994       3.30272096      -3.40307638
C        2.49083686       3.93855659      -2.59037257
C        1.66548003       3.16806148      -1.76489114
C        1.78679537       1.78679537      -1.78679537
C        2.73533369       1.23161946      -2.62787509
N        3.54893471       1.96482557      -3.42237948
N        3.26943522       3.96016248      -8.14384368
C        2.11830082       4.62269710      -8.17758079
C        0.84965241       3.90395507      -8.40993505
C        0.84506169       2.51476653      -8.14306187
C       -0.30887082       1.73409833      -8.27363648
C       -1.49587911       2.33617271      -8.66037078
C       -1.51588728       3.69479549      -8.96846653
C       -0.34089843       4.45911253      -8.87670311
H       -1.48354312       7.38326199      -6.71691285
H        0.07687190       6.88765030      -5.82458686
H       -0.27718188       7.74172524      -8.76152781
H        2.23475794       7.95212875      -7.42261162
H        2.00628803       7.51508810      -9.10739601
H        5.65335588       5.73737941      -5.46656745
H        7.07852436       4.70896311      -5.46297856
H        4.04799652       5.09733451      -4.21745455
H        2.40106819       5.01915337      -2.57083306
H        0.94284082       3.65127663      -1.11584353
H        2.88293179       0.15723558      -2.69781527
H        1.76285510       2.02051765      -7.82469923
H       -0.26027971       0.67025182      -8.06209998
H       -2.43994239       4.16965767      -9.29180707
H       -0.40076857       5.48132532      -9.20569038
C       -2.70234047       1.55623977      -8.75914121
C       -3.71275186       0.90304594      -8.84186144
Br      -5.34650163      -0.15311325      -8.97561307
C       -4.19528124      -8.93442062      -0.41636824
C       -4.31032678      -9.80855681      -1.42515585
C       -4.72593176      -9.50280287      -2.82544883
N       -3.94749047      -8.59250226      -3.66350927
N       -4.69500375      -7.91451646      -4.58388256
C       -3.77644246      -7.52171257      -5.45723695
S       -4.19713375      -6.72779252      -6.93952749
C       -4.99182066      -5.25016637      -6.26286751
C       -3.95510534      -4.32505189      -5.63581898
O       -3.10941984      -3.78349765      -6.33037181
N       -4.13810502      -4.15472947      -4.26808238
C       -3.32638702      -3.35468022      -3.45280004
C       -3.71809834      -3.17448972      -2.12717796
C       -2.94033824      -2.37166203      -1.28643238
C       -1.78679537      -1.78679537      -1.78679537
C       -1.46174321      -2.02170757      -3.11137744
N       -2.21098529      -2.78558022      -3.93957426
N       -2.50554870      -7.78027061      -5.08762206
C       -2.59551210      -8.40471030      -3.91835631
C       -1.38397474      -8.66424665      -3.11532114
C       -0.25234357      -7.86095669      -3.38958983
C        0.93709195      -7.97463359      -2.66132235
C        1.01303151      -8.89018290      -1.62351299
C       -0.07042656      -9.72347525      -1.35347292
C       -1.24352472      -9.63081195      -2.12058054
H       -3.91090858      -9.28441114       0.57868800
H       -4.37456590      -7.87008150      -0.54446167
H       -4.14784692     -10.86762765      -1.21059659
H       -5.74104850      -9.09143647      -2.77701335
H       -4.79688400     -10.43558482      -3.39630332
H       -5.77841857      -5.52609125      -5.55279293
H       -5.47590142      -4.70020749      -7.07435711
H       -4.91033669      -4.62788679      -3.82456209
H       -4.62333431      -3.62852433      -1.73919598
H       -3.24253045      -2.21038465      -0.25704587
H       -0.57166498      -1.59776397      -3.56855369
H       -0.29156327      -7.12443542      -4.19207328
H        1.78019678      -7.33869291      -2.91357596
H       -0.01042438     -10.45806322      -0.55303474
H       -2.01304664     -10.35454975      -1.91865073
C        2.21461288      -8.99127597      -0.83637742
C        3.22093728      -9.07594142      -0.17715138
Br       4.84807872      -9.21283828       0.88876136
C       -4.04228416       9.00022112       0.50356481
C       -4.16001792       9.85818711       1.52583441
C       -4.60633974       9.53512119       2.91272252
N       -3.85957355       8.59606029       3.74786816
N       -4.63562238       7.91545540       4.64232499
C       -3.74020099       7.49055304       5.52463794
S       -4.20179321       6.67811009       6.98455045
C       -5.01027602       5.22743525       6.26714327
C       -3.97900413       4.29498521       5.64198687
O       -3.15584169       3.72588857       6.34155904
N       -4.14016678       4.15240815       4.26834195
C       -3.32817620       3.35241864       3.45327244
C       -3.69892285       3.20301261       2.11783055
C       -2.92046676       2.40131531       1.27665058
C       -1.78679537       1.78679537       1.78679537
C       -1.48169242       1.99213323       3.12100258
N       -2.23210616       2.75459432       3.94943928
N       -2.45840583       7.73255749       5.18247804
C       -2.51600172       8.37926138       4.02331561
C       -1.28566348       8.63104335       3.24683570
C       -0.17368691       7.80259681       3.52660637
C        1.03060130       7.90763522       2.82183007
C        1.14165695       8.84000260       1.80231873
C        0.07829577       9.69749255       1.52817796
C       -1.10999056       9.61247249       2.27245416
H       -3.73371558       9.36266953      -0.47975338
H       -4.24279910       7.93719625       0.60911371
H       -3.97482760      10.91779092       1.33345264
H       -5.62757930       9.14316648       2.83875253
H       -4.67100478      10.45871718       3.49905018
H       -5.77882139       5.53019305       5.54828831
H       -5.51872102       4.67197693       7.05976807
H       -4.89567192       4.64732452       3.81978914
H       -4.58873756       3.68023575       1.72208131
H       -3.20676039       2.26391394       0.23928665
H       -0.60774967       1.54403344       3.58619953
H       -0.24057549       7.05272650       4.31476999
H        1.85752606       7.25211039       3.07748775
H        0.16588856      10.44501672       0.74239418
H       -1.86270475      10.35353449       2.07000788
C        2.35893082       8.93328983       1.03868151
C        3.37839769       9.01141788       0.39913533
Br       5.02678940       9.13774433      -0.63495675
C       -0.25325132      -5.82196709       7.97735432
C        0.59327566      -5.94190087       9.00886291
C        2.08046797      -6.04006305       8.93365244
N        2.88170265      -4.95859284       8.36320651
N        4.03885815      -5.38119265       7.77335197
C        4.75679085      -4.26597442       7.73262671
S        6.40728492      -4.25387992       7.20328891
C        6.17216649      -4.82857968       5.50410837
C        5.51105189      -3.74512294       4.65980138
O        6.09721723      -2.69977363       4.42629842
N        4.26047770      -4.11938220       4.18105698
C        3.44333599      -3.31069043       3.37984086
C        2.27826904      -3.87677504       2.86472193
C        1.44411001      -3.10456219       2.04976046
C        1.78679537      -1.78679537       1.78679537
C        2.95534241      -1.29644230       2.34304353
N        3.77814680      -2.03525045       3.12274251
N        4.09325035      -3.15833906       8.12185196
C        2.87903276      -3.57383844       8.46570750
C        1.81011026      -2.59750595       8.75592631
C        1.97679169      -1.29414045       8.23195795
C        1.00935093      -0.29611781       8.39339525
C       -0.16226688      -0.58971313       9.07321813
C       -0.33997565      -1.85216989       9.63518049
C        0.65791024      -2.83218530       9.50482167
H       -1.33042354      -5.79027492       8.15678034
H        0.08882592      -5.75224443       6.94803872
H        0.17228662      -6.04146698      10.01231756
H        2.31435072      -6.94093782       8.35420977
H        2.48599056      -6.20436704       9.93841453
H        5.60410742      -5.76460574       5.48858959
H        7.14800228      -5.04251708       5.05994666
H        3.91257591      -5.03698315       4.41322652
H        2.01469398      -4.90906447       3.06729617
H        0.54263039      -3.53780789       1.62952269
H        3.28358202      -0.27318933       2.18121129
H        2.88357438      -1.04241166       7.68208594
H        1.18607937       0.69087084       7.97686356
H       -1.24876550      -2.08312928      10.18715856
H        0.49943499      -3.75790386      10.02890828
C       -1.18678664       0.41257745       9.21240459
C       -2.04482193       1.25199581       9.32897325
Br      -3.43219243       2.60926429       9.51745492
C       -0.00445707       0.01189536      -1.78238275
H       -0.66409135       0.67374010      -2.43557963
H        0.65740317      -0.63156657      -2.45157240
C       -0.90989263      -0.90692880      -0.91072765
C        0.90977584       0.90977584      -0.90977584
C       -0.00465871       1.77757030       0.00794375
H       -0.66225468       2.44313916      -0.64384735
H        0.64322798       2.43503045       0.67728295
C       -1.78241447       0.00034974      -0.00472694
H       -2.45427497      -0.65498947       0.64260836
H       -2.43311707       0.67328779      -0.65473579
C       -0.91132561       0.90220522       0.91563759
C       -0.01476271      -0.02253852       1.78660255
H       -0.67934791      -0.69751639       2.42135241
H        0.63392994       0.61504881       2.47327442
C        0.01484550      -1.77751727      -0.01636693
H        0.67870853      -2.42144646      -0.68295456
H       -0.62264859      -2.45592969       0.64226336
C        1.78714474       0.01002794       0.00389507
H        2.44202412       0.67113390       0.66197326
H        2.45385902      -0.65136977      -0.64189061
C        0.91606151      -0.90478549       0.90901405
