186
Properties=species:S:1:pos:R:3 pbc="F F F"
C       -0.40570474       7.20720118      -6.74457366
C        0.27194871       7.38560671      -7.88648402
C        1.74288598       7.22828023      -8.08301725
N        2.40271986       5.94351604      -7.85726610
N        3.69861008       6.05451146      -7.44028123
C        4.18655194       4.85193518      -7.71690486
S        5.86714842       4.47466655      -7.52263878
C        6.02151964       4.74308157      -5.74025333
C        5.30876187       3.63788736      -4.96932697
O        5.71334861       2.48709879      -5.02284189
N        4.24614018       4.10862771      -4.20614898
C        3.42806994       3.30272096      -3.40307638
C        2.49083686       3.93855659      -2.59037257
C        1.66548003       3.16806148      -1.76489114
C        1.78679537       1.78679537      -1.78679537
C        2.73533369       1.23161946      -2.62787509
N        3.54893471       1.96482557      -3.42237948
N        3.26943522       3.96016248      -8.14384368
C        2.11830082       4.62269710      -8.17758079
C        0.84965241       3.90395507      -8.40993505
C        0.84506169       2.51476653      -8.14306187
C       -0.30887082       1.73409833      -8.27363648
C       -1.49587911       2.33617271      -8.66037078
Br      -3.07768207       1.31359522      -8.78986963
C       -1.51588728       3.69479549      -8.96846653
C       -0.34089843       4.45911253      -8.87670311
H       -1.48354312       7.38326199      -6.71691285
H        0.07687190       6.88765030      -5.82458686
H       -0.27718188       7.74172524      -8.76152781
H        2.23475794       7.95212875      -7.42261162
H        2.00628803       7.51508810      -9.10739601
H        5.65335588       5.73737941      -5.46656745
H        7.07852436       4.70896311      -5.46297856
H        4.04799652       5.09733451      -4.21745455
H        2.40106819       5.01915337      -2.57083306
H        0.94284082       3.65127663      -1.11584353
H        2.88293179       0.15723558      -2.69781527
H        1.76285510       2.02051765      -7.82469923
H       -0.26027971       0.67025182      -8.06209998
H       -2.43994239       4.16965767      -9.29180707
H       -0.40076857       5.48132532      -9.20569038
C       -9.43140791      -2.35811452      -1.75654766
C      -10.01660573      -3.54125170      -1.98618201
C       -9.53452927      -4.60865174      -2.91100245
N       -8.23882599      -5.25489263      -2.70978338
N       -7.64830716      -5.67907492      -3.86602069
C       -6.76701813      -6.56625122      -3.42212263
S       -5.82283731      -7.54239752      -4.49921893
C       -4.91411970      -6.23405316      -5.35668168
C       -3.87811186      -5.60726699      -4.43059735
O       -2.93015460      -6.26389373      -4.02924095
N       -4.12125825      -4.26183499      -4.17782364
C       -3.32102144      -3.45081029      -3.36203555
C       -3.61518675      -2.08901460      -3.31556467
C       -2.83012979      -1.24556308      -2.52273978
C       -1.78679537      -1.78679537      -1.78679537
C       -1.56508428      -3.14970007      -1.88004387
N       -2.30821164      -3.97562933      -2.65229880
N       -6.66454958      -6.62993091      -2.07896088
C       -7.54984745      -5.75560412      -1.61312714
C       -7.57483110      -5.41111593      -0.17759550
C       -6.39595860      -5.66786582       0.56093432
C       -6.27744799      -5.33673626       1.91532026
C       -7.33908161      -4.72078042       2.55919766
Br      -7.18231536      -4.21484228       4.37137485
C       -8.52794589      -4.48982881       1.87039996
C       -8.65049908      -4.86735614       0.52293801
H       -9.89828725      -1.64164986      -1.07669461
H       -8.49303789      -2.07174093      -2.22433025
H      -10.97710948      -3.74313563      -1.50582605
H       -9.51469727      -4.17641962      -3.91838142
H      -10.26583329      -5.42438870      -2.93855015
H       -5.60456752      -5.48832263      -5.76441260
H       -4.37794114      -6.66719348      -6.20533140
H       -4.92058104      -3.82836107      -4.61384346
H       -4.42830192      -1.66687087      -3.89588183
H       -3.03848266      -0.18137753      -2.49010078
H       -0.76741350      -3.64114436      -1.32942478
H       -5.54251111      -6.13931580       0.07375493
H       -5.35332076      -5.55894382       2.44019250
H       -9.37212925      -4.02469553       2.37530244
H       -9.61724706      -4.73856493       0.06956487
C       -0.22850120       8.76432304       4.55324585
C       -0.65713344       9.11317803       5.77372797
C       -1.93576188       8.69726723       6.42115434
N       -2.22446096       7.28956676       6.68947428
N       -3.55501028       6.98296037       6.65543212
C       -3.59614975       5.83665687       7.32258536
S       -5.09243114       5.05540433       7.71661828
C       -5.71062836       4.75016094       6.04406524
C       -4.89617575       3.65536804       5.36443242
O       -4.92449873       2.51059949       5.78819107
N       -4.21486431       4.10654504       4.23950752
C       -3.39701308       3.30416988       3.43268432
C       -2.89156915       3.86658075       2.26161611
C       -2.08226434       3.09221998       1.42394834
C       -1.78679537       1.78679537       1.78679537
C       -2.32000737       1.30518947       2.96963139
N       -3.11437115       2.03842919       3.78333943
N       -2.38766983       5.33569417       7.65007737
C       -1.50290033       6.21772094       7.19795744
C       -0.06121843       5.89901717       7.20330693
C        0.28949114       4.52986270       7.26251853
C        1.61992760       4.09832695       7.22046464
C        2.63419322       5.03519312       7.09966448
Br       4.43305441       4.47342874       6.98540846
C        2.32445661       6.39342379       7.07840756
C        0.98783666       6.81640532       7.16634856
H        0.71653218       9.15960500       4.17355889
H       -0.78855948       8.09109124       3.90945835
H       -0.05583770       9.82209198       6.34814148
H       -2.75152692       9.06836068       5.78961071
H       -2.03684534       9.20471158       7.38721521
H       -5.71941853       5.67695652       5.46092769
H       -6.74552468       4.40247778       6.10246356
H       -4.31682452       5.07358843       3.97237262
H       -3.12803611       4.88600060       1.97701790
H       -1.69547911       3.51276324       0.50171862
H       -2.12794473       0.29341544       3.31662247
H       -0.49064655       3.77310924       7.34431619
H        1.83844031       3.03614751       7.27436489
H        3.11718803       7.13498958       7.00372080
H        0.81808407       7.87666983       7.22766137
C        7.58989923      -6.31373103      -0.35756016
C        7.79619259      -7.48104060       0.26680626
C        7.57148768      -7.76894340       1.71375238
N        6.24238992      -7.65036571       2.31074637
N        6.25975417      -7.30227413       3.63137446
C        5.05035157      -7.67035907       4.03468134
S        4.57292509      -7.59237793       5.69915073
C        4.73102283      -5.80979167       5.96404003
C        3.62372652      -5.06012500       5.23212468
O        2.45776299      -5.19826893       5.56725737
N        4.10677776      -4.21365852       4.24048060
C        3.30168535      -3.40988660       3.42229533
C        3.93977879      -2.51229642       2.56769080
C        3.16910876      -1.68386819       1.74545570
C        1.78679537      -1.78679537       1.78679537
C        1.23011871      -2.70898350       2.65572601
N        1.96248650      -3.50786515       3.46578812
N        4.23481632      -8.09182417       3.04680088
C        4.95907848      -8.02450565       1.93499457
C        4.32388037      -8.22272648       0.61693567
C        2.92403579      -8.03103648       0.54781782
C        2.21515943      -8.13762926      -0.65392470
C        2.90111652      -8.42343894      -1.82389108
Br       1.97399516      -8.51766031      -3.46587268
C        4.27415091      -8.65647067      -1.78324685
C        4.96779870      -8.59064428      -0.56352577
H        7.82175236      -6.21549756      -1.42061820
H        7.19316547      -5.44112582       0.15481779
H        8.23040555      -8.30309697      -0.30743136
H        8.22920054      -7.09960145       2.28069632
H        7.90143193      -8.78973654       1.93760368
H        5.72651656      -5.46262519       5.66816100
H        4.62448283      -5.59521443       7.03076876
H        5.10374575      -4.16056556       4.09847425
H        5.02078235      -2.42966992       2.54060235
H        3.65281302      -0.96981684       1.08733111
H        0.15506418      -2.84480625       2.73811221
H        2.36391866      -7.79231095       1.45184237
H        1.13994654      -7.98664887      -0.65452332
H        4.81555969      -8.90084478      -2.69488212
H        6.00877996      -8.86031224      -0.58284508
C       -0.00445707       0.01189536      -1.78238275
H       -0.66409135       0.67374010      -2.43557963
H        0.65740317      -0.63156657      -2.45157240
C       -0.90989263      -0.90692880      -0.91072765
C        0.90977584       0.90977584      -0.90977584
C       -0.00465871       1.77757030       0.00794375
H       -0.66225468       2.44313916      -0.64384735
H        0.64322798       2.43503045       0.67728295
C       -1.78241447       0.00034974      -0.00472694
H       -2.45427497      -0.65498947       0.64260836
H       -2.43311707       0.67328779      -0.65473579
C       -0.91132561       0.90220522       0.91563759
C       -0.01476271      -0.02253852       1.78660255
H       -0.67934791      -0.69751639       2.42135241
H        0.63392994       0.61504881       2.47327442
C        0.01484550      -1.77751727      -0.01636693
H        0.67870853      -2.42144646      -0.68295456
H       -0.62264859      -2.45592969       0.64226336
C        1.78714474       0.01002794       0.00389507
H        2.44202412       0.67113390       0.66197326
H        2.45385902      -0.65136977      -0.64189061
C        0.91606151      -0.90478549       0.90901405
