153
Properties=species:S:1:pos:R:3 pbc="F F F"
C        0.00000000       0.00000000       0.00000000
C        8.68121323       3.82037262      -7.22109762
C        8.96771118       5.09363530      -6.91672889
C        8.40962701       5.91236350      -5.78228973
N        7.10999254       5.49652622      -5.27628020
N        7.06069950       4.62530786      -4.24153189
C        5.75140494       4.41960505      -4.11798411
S        5.10504928       3.33810984      -2.91884074
C        3.35244541       3.37559486      -3.38897366
C        2.49775161       2.50004403      -2.50169904
C        2.60430362       1.10133498      -2.55697265
C        1.80180119       0.29430615      -1.74685537
C        0.88185464       0.88185464      -0.88185464
C        0.75958657       2.26783052      -0.81611380
C        1.56713572       3.07428882      -1.62210319
N        4.97836476       5.12239095      -4.99102020
C        5.84038525       5.83792294      -5.69380259
C        5.44336885       6.77850415      -6.74478690
C        6.00465288       8.05452720      -6.88039857
C        5.54388588       8.93868755      -7.86317126
C        4.49316436       8.56358344      -8.69848857
Br       3.85034731       9.77204821     -10.00085509
C        3.90041323       7.31323024      -8.56109302
C        4.37426805       6.42827567      -7.58798276
H        9.16604449       3.32764974      -8.05931076
H        7.98715950       3.22421322      -6.63482282
H        9.70154485       5.60871773      -7.53453485
H        8.33143711       6.95261863      -6.09926925
H        9.11247097       5.89914158      -4.94040517
H        3.23559973       3.04167909      -4.42689374
H        2.99380378       4.41041182      -3.33974255
H        3.31994255       0.63196925      -3.22958475
H        1.90358808      -0.78615832      -1.79909207
H        0.04195117       2.72984779      -0.14324449
H        1.46180641       4.15559997      -1.55945306
H        6.77445449       8.40699894      -6.20051446
H        5.99359747       9.92461950      -7.95199409
H        3.06355707       7.02052699      -9.18913305
H        3.88750146       5.45975254      -7.47316977
C       -4.64326417      -9.39019818      -5.68922113
C       -5.11514659      -8.98624483      -6.87668394
C       -4.99307526      -7.61758883      -7.49361614
N       -4.80520322      -6.51436411      -6.56323162
N       -3.54511484      -6.13002937      -6.25239504
C       -3.76330336      -5.18595009      -5.33974064
S       -2.45371985      -4.34307865      -4.56520136
C       -3.39281935      -3.36728564      -3.35690895
C       -2.50198575      -2.49942455      -2.49808438
C       -1.64469756      -3.07245266      -1.54546103
C       -0.83396304      -2.26675749      -0.74224218
C       -0.88185464      -0.88185464      -0.88185464
C       -1.72901660      -0.29535656      -1.81915773
C       -2.53477873      -1.10230590      -2.62644310
N       -5.07612673      -4.93850454      -5.07714464
C       -5.73407358      -5.75091096      -5.88712624
C       -7.19616922      -5.80321973      -5.96727095
C       -7.89338170      -5.86581353      -7.18038343
C       -9.29305230      -5.84919862      -7.20349378
C      -10.00685222      -5.73665245      -6.01173171
Br     -11.89500235      -5.67943710      -6.04881116
C       -9.33458784      -5.64196973      -4.79817892
C       -7.93700542      -5.67415585      -4.77936522
H       -4.77860148     -10.41615205      -5.35825146
H       -4.08656280      -8.73014060      -5.02949214
H       -5.63128769      -9.72099063      -7.49251911
H       -5.88631729      -7.41273573      -8.08427197
H       -4.15049298      -7.60587446      -8.19565029
H       -3.96783325      -4.03355343      -2.70278588
H       -4.11369610      -2.73816016      -3.89210189
H       -1.59966056      -4.15368373      -1.42815226
H       -0.17210623      -2.72920738      -0.01520822
H       -1.77000396       0.78502881      -1.93006829
H       -3.19088440      -0.63062906      -3.35534599
H       -7.36971449      -5.88075342      -8.13149998
H       -9.81504717      -5.89919240      -8.15597149
H       -9.88019268      -5.52738105      -3.86564339
H       -7.41941355      -5.57590154      -3.82510868
C       -9.32172018       5.94830354       4.45265976
C       -8.88286532       7.08533176       5.00987828
C       -7.47915650       7.63128975       4.99383398
N       -6.41743210       6.65251324       4.81285361
N       -5.98089518       6.38728310       3.55936098
C       -5.09934905       5.41372786       3.77591719
S       -4.22713189       4.66340894       2.47145903
C       -3.36923845       3.35560309       3.39217239
C       -2.49963609       2.49795426       2.50190433
C       -3.07350799       1.62458535       1.56451791
C       -2.26740499       0.82162299       0.75393473
C       -0.88185464       0.88185464       0.88185464
C       -0.29479421       1.73973371       1.80900297
C       -1.10166041       2.54708022       2.61478709
N       -4.93885003       5.06954256       5.08338332
C       -5.74285447       5.88761251       5.74164380
C       -5.87155151       5.89391659       7.20119181
C       -5.90899216       7.07049238       7.96009412
C       -5.96850230       7.01938765       9.35785474
C       -5.95804926       5.78751807      10.00966904
Br      -6.00331826       5.72254289      11.89738945
C       -5.89001326       4.60742609       9.27729714
C       -5.84591971       4.66356557       7.88104119
H      -10.36949077       5.66786238       4.51565184
H       -8.66735247       5.28316601       3.89567707
H       -9.61176175       7.71294884       5.52008684
H       -7.29331627       8.16218842       5.92782030
H       -7.38422054       8.37472688       4.19307030
H       -4.09955023       2.71008007       3.89454226
H       -2.75373938       3.81679053       4.17342824
H       -4.15525711       1.56967547       1.45656397
H       -2.73000743       0.15685906       0.02965534
H        0.78600051       1.78852249       1.91252146
H       -0.62944242       3.21349907       3.33391796
H       -5.84521090       8.04707639       7.48968060
H       -5.99734080       7.94455547       9.92831480
H       -5.85467363       3.64271916       9.77582433
H       -5.76929671       3.73372891       7.31739816
C        3.80533470      -7.27260121       8.64474757
C        5.07217891      -6.95787714       8.94801932
C        5.88459957      -5.80896142       8.41071924
N        5.47713419      -5.29352797       7.11213680
N        4.59548926      -4.26757174       7.06447825
C        4.40231927      -4.13223441       5.75444041
S        3.31497239      -2.93774920       5.10927826
C        3.37598217      -3.38872505       3.35230672
C        2.50008591      -2.50167438       2.49773439
C        1.10099921      -2.57285195       2.58876009
C        0.29388961      -1.76278334       1.78628976
C        0.88185464      -0.88185464       0.88185464
C        2.26826386      -0.80017774       0.77508929
C        3.07470563      -1.60617883       1.58264327
N        5.12250980      -4.98949760       4.97976850
C        5.83635852      -5.69384512       5.84190714
C        6.79224559      -6.73053881       5.44387551
C        8.06364421      -6.85864958       6.01728486
C        8.96306198      -7.82705473       5.55562798
C        8.60801421      -8.65502369       4.49219849
Br       9.83703409      -9.93761811       3.84859841
C        7.36259584      -8.52452221       3.88761844
C        6.46234886      -7.56592650       4.36225112
H        3.31649422      -8.12109918       9.11541160
H        3.21031475      -6.68528032       7.95060048
H        5.58604747      -7.57800658       9.68074339
H        6.92894683      -6.11408366       8.34029450
H        5.85496920      -4.97481395       9.12223458
H        3.05441742      -4.42880756       3.22094758
H        4.41394481      -3.32474169       3.00527164
H        0.63130781      -3.25798462       3.29220412
H       -0.78697049      -1.82751226       1.87598005
H        2.73062598      -0.11484419       0.06957328
H        4.15633857      -1.53099090       1.48952998
H        8.40068834      -6.18333666       6.79794289
H        9.94508116      -7.91025483       6.01487507
H        7.08546827      -9.14664987       3.04109897
H        5.49785047      -7.45615976       3.86641354
