182
Properties=species:S:1:pos:R:3 pbc="F F F"
C        9.59111725       4.73027665      -8.13100165
C        9.87761521       6.00353932      -7.82663291
C        9.31953104       6.82226752      -6.69219375
N        8.01989656       6.40643024      -6.18618422
N        7.97060353       5.53521188      -5.15143591
C        6.66130896       5.32950907      -5.02788813
S        6.01495330       4.24801387      -3.82874477
C        4.26234943       4.28549888      -4.29887769
C        3.40765563       3.40994806      -3.41160306
C        3.51420765       2.01123901      -3.46687667
C        2.71170521       1.20421018      -2.65675939
C        1.79175867       1.79175867      -1.79175867
C        1.66949060       3.17773454      -1.72601783
C        2.47703974       3.98419284      -2.53200721
N        5.88826879       6.03229498      -5.90092422
C        6.75028928       6.74782697      -6.60370661
C        6.35327288       7.68840818      -7.65469093
C        6.91455691       8.96443123      -7.79030260
C        6.45378990       9.84859157      -8.77307529
C        5.40306839       9.47348747      -9.60839260
C        4.81031726       8.22313426      -9.47099704
C        5.28417207       7.33817969      -8.49788679
H       10.07594851       4.23755376      -8.96921479
H        8.89706352       4.13411724      -7.54472685
H       10.61144888       6.51862175      -8.44443888
H        9.24134114       7.86252266      -7.00917327
H       10.02237500       6.80904561      -5.85030919
H        4.14550375       3.95158312      -5.33679777
H        3.90370780       5.32031584      -4.24964657
H        4.22984657       1.54187327      -4.13948877
H        2.81349211       0.12374570      -2.70899609
H        0.95185519       3.63975182      -1.05314851
H        2.37171044       5.06550400      -2.46935709
H        7.68435852       9.31690296      -7.11041848
H        6.90350149      10.83452353      -8.86189812
H        3.97346109       7.93043101     -10.09903708
H        4.79740548       6.36965657      -8.38307380
C        4.91314248      10.39452433     -10.60099710
C        4.50282953      11.16589270     -11.43230337
Br       3.83938819      12.41313012     -12.77645530
C       -4.61731003      -9.15581311      -8.67927240
C       -5.69493404      -8.68843946      -9.32441394
C       -6.30180101      -7.31397184      -9.21821947
N       -6.03660705      -6.59482447      -7.98107951
N       -4.96434949      -5.77084947      -7.92205237
C       -4.99472935      -5.37127295      -6.65270386
S       -3.79914647      -4.28529327      -6.00727219
C       -4.29332228      -4.29249599      -4.26090774
C       -3.41080411      -3.41095435      -3.40744830
C       -2.07586464      -3.76323524      -3.15322345
C       -1.26718971      -2.95438976      -2.35109532
C       -1.79175867      -1.79175867      -1.79175867
C       -3.11510656      -1.42816072      -2.02997568
C       -3.92123600      -2.23444263      -2.83756117
N       -6.02810228      -5.87211270      -5.92127301
C       -6.71184276      -6.61162819      -6.77835190
C       -7.94123302      -7.32750499      -6.42763397
C       -9.07611840      -7.34493089      -7.24824143
C      -10.24761684      -7.99138891      -6.83645101
C      -10.30282779      -8.59883807      -5.58328260
C       -9.19802435      -8.56694662      -4.73947759
C       -8.02559249      -7.93303999      -5.16160607
H       -4.26125630     -10.16728359      -8.85417717
H       -4.04273214      -8.54492131      -7.98825416
H       -6.19253721      -9.35491875     -10.02705356
H       -7.38263405      -7.39214435      -9.33825866
H       -5.94439545      -6.69054284     -10.04679150
H       -4.25488924      -5.31425980      -3.86473560
H       -5.33363262      -3.95502250      -4.18501510
H       -1.65604614      -4.66979887      -3.58536361
H       -0.23452575      -3.24037058      -2.17133756
H       -3.52827670      -0.52229836      -1.59418046
H       -4.95283125      -1.93753869      -3.01620158
H       -9.09265661      -6.82025042      -8.19877294
H      -11.11743087      -7.99365314      -7.48883913
H       -9.23856452      -9.01420646      -3.75015821
H       -7.17314862      -7.89357175      -4.48341548
C      -11.51745600      -9.24023342      -5.15097449
C      -12.53470713      -9.77740202      -4.78891644
Br     -14.17951618     -10.64595823      -4.20349921
C      -10.08314569       5.11009314       7.25915671
C      -10.10243155       6.44632728       7.15902860
C       -9.21829463       7.31375523       6.30194245
N       -7.92880157       6.74548044       5.93822902
N       -7.82342251       6.05508366       4.77874515
C       -6.56351936       5.62828727       4.82689954
S       -5.88161094       4.64742724       3.56267374
C       -4.26558357       4.27902106       4.30212138
C       -3.40803816       3.40925446       3.41191414
C       -3.74255748       2.06487650       3.18488934
C       -2.93933357       1.25918887       2.37415234
C       -1.79175867       1.79175867       1.79175867
C       -1.44204225       3.12248319       2.00871754
C       -2.24946945       3.92922123       2.81454912
N       -5.86791782       6.02587312       5.92769704
C       -6.72303434       6.77104382       6.60774469
C       -6.38792433       7.44194129       7.86650635
C       -6.75609496       8.76321189       8.14998388
C       -6.35523590       9.37816763       9.34205324
C       -5.55353708       8.68455950      10.24685187
C       -5.15047694       7.38251759       9.97145403
C       -5.56596941       6.76773480       8.78653434
H      -10.78894827       4.59160796       7.90216083
H       -9.39396300       4.49391159       6.68803302
H      -10.84891843       6.98644635       7.73914473
H       -9.03805820       8.25727015       6.81770871
H       -9.74286842       7.56639660       5.37246478
H       -4.40078149       3.76946826       5.26363489
H       -3.74530555       5.22218936       4.50617531
H       -4.63716050       1.63870216       3.63534596
H       -3.21841967       0.22286107       2.20495316
H       -0.54661567       3.54119888       1.55694097
H       -1.96485224       4.96734563       2.97437365
H       -7.31838840       9.35736637       7.43592520
H       -6.65223447      10.40460304       9.54308562
H       -4.50397572       6.84183480      10.65711867
H       -5.22540424       5.75528848       8.56944312
C       -5.12044716       9.32820789      11.46000886
C       -4.75773435       9.86726341      12.47602784
Br      -4.17125842      10.73887060      14.11884459
C        4.85192523      -9.81235645       7.78811387
C        5.69225995      -9.31149934       8.70402814
C        6.02106877      -7.86241123       8.95051230
N        5.82611259      -6.96448761       7.82191083
N        4.63565296      -6.33459859       7.68699977
C        4.79536813      -5.68988042       6.53345761
S        3.53056523      -4.71014771       5.85099899
C        4.29852672      -4.28604283       4.26215645
C        3.41139006      -3.41027818       3.40753851
C        2.23479463      -3.92078257       2.83674613
C        1.42500108      -3.11325201       2.03442169
C        1.79175867      -1.79175867       1.79175867
C        2.95754900      -1.26904475       2.34664922
C        3.76346772      -2.07561257       3.15415951
N        6.01460804      -5.85610200       5.95077794
C        6.68078654      -6.62836456       6.79267175
C        8.06925094      -7.04590193       6.58121911
C        9.03275486      -7.03881537       7.59772051
C       10.36154944      -7.38669334       7.32721398
C       10.74392519      -7.71358116       6.02744210
C        9.81042172      -7.69707659       4.99695025
C        8.48152290      -7.36354128       5.27517437
H        4.68136062     -10.88308876       7.71826768
H        4.28937519      -9.17942721       7.10710522
H        6.18966549     -10.01318450       9.37165952
H        7.06057450      -7.78285841       9.26960415
H        5.41400559      -7.48525118       9.78247303
H        4.53134884      -5.19990893       3.70262687
H        5.24824580      -3.77263585       4.45278857
H        1.93906297      -4.95220537       3.01994028
H        0.51471986      -3.52454687       1.60696716
H        3.24760605      -0.23866965       2.15847982
H        4.67071784      -1.65372288       3.58213081
H        8.78635105      -6.71945724       8.60587168
H       11.09390900      -7.37523926       8.13077487
H       10.10289076      -7.92445838       3.97558004
H        7.76277284      -7.33103062       4.45633239
C       12.11675674      -8.04532276       5.74658441
C       13.26650316      -8.32315635       5.51136609
Br      15.12554589      -8.77238976       5.13103796
C       -0.00445707       0.01189536      -1.78238275
H       -0.66409135       0.67374010      -2.43557963
H        0.65740317      -0.63156657      -2.45157240
C       -0.90989263      -0.90692880      -0.91072765
C        0.90977584       0.90977584      -0.90977584
C       -0.00465871       1.77757030       0.00794375
H       -0.66225468       2.44313916      -0.64384735
H        0.64322798       2.43503045       0.67728295
C       -1.78241447       0.00034974      -0.00472694
H       -2.45427497      -0.65498947       0.64260836
H       -2.43311707       0.67328779      -0.65473579
C       -0.91132561       0.90220522       0.91563759
C       -0.01476271      -0.02253852       1.78660255
H       -0.67934791      -0.69751639       2.42135241
H        0.63392994       0.61504881       2.47327442
C        0.01484550      -1.77751727      -0.01636693
H        0.67870853      -2.42144646      -0.68295456
H       -0.62264859      -2.45592969       0.64226336
C        1.78714474       0.01002794       0.00389507
H        2.44202412       0.67113390       0.66197326
H        2.45385902      -0.65136977      -0.64189061
C        0.91606151      -0.90478549       0.90901405
