130
Properties=species:S:1:pos:R:3 pbc="F F F"
C        1.79322805       1.79322805      -1.79322805
C        2.69919535       1.20621507      -2.67203780
C        3.50174491       2.02224993      -3.47367158
C        3.39170851       3.41508707      -3.43151460
N        4.22863391       4.24770666      -4.17765709
N        5.08227236       3.81505998      -5.24780774
N        5.17354374       4.99356075      -6.09978563
C        6.10785429       4.92655629      -7.07654464
C        7.24852401       4.10763619      -7.03860158
C        8.19916153       4.11211060      -8.06354186
C        8.01926586       4.95090524      -9.15655084
C        6.90519641       5.78025465      -9.23024181
C        5.96733115       5.76432095      -8.19269366
C        2.49712460       3.98127981      -2.51756862
C        1.69070334       3.17987876      -1.70493601
H        2.80284999       0.13081446      -2.75115370
H        4.22490741       1.59425186      -4.16459569
H        3.88573926       5.16471585      -4.43967434
H        7.38561471       3.46219795      -6.17306563
H        9.05852229       3.46067928      -7.97844916
H        6.74576954       6.44075222     -10.07194039
H        5.09251135       6.40862376      -8.23802668
H        2.44611159       5.06318262      -2.45336733
H        1.00173385       3.65178510      -1.01476722
C        8.99422376       4.96586622     -10.21618911
C        9.81075100       4.97839605     -11.10363616
Br      11.13100649       4.99865571     -12.53856299
C       -1.79322805      -1.79322805      -1.79322805
C       -2.07967143      -3.09752408      -1.40025271
C       -2.88680085      -3.89601243      -2.21485314
C       -3.43586858      -3.40118565      -3.40125594
N       -4.19163906      -4.20306499      -4.25929361
N       -4.72144900      -5.49561962      -3.92807146
N       -5.91220195      -5.59247845      -4.76220972
C       -6.48408980      -6.81814776      -4.80871766
C       -5.81149452      -8.02554707      -4.55772020
C       -6.44959031      -9.26513961      -4.66008406
C       -7.79000916      -9.31400332      -5.02270945
C       -8.49075619      -8.14128639      -5.28365029
C       -7.83355519      -6.91097927      -5.17981130
C       -3.10725249      -2.09853549      -3.79018505
C       -2.29739946      -1.28825981      -2.98985885
H       -1.69136265      -3.51451828      -0.47893722
H       -3.12239373      -4.92179719      -1.93956404
H       -4.88080701      -3.75626623      -4.85305622
H       -4.75900705      -7.97700811      -4.28486312
H       -5.87966858     -10.16167179      -4.45631037
H       -9.53451625      -8.15664153      -5.56730438
H       -8.37007860      -5.98700803      -5.38207516
H       -3.49677953      -1.73177325      -4.73410876
H       -2.07061778      -0.28066248      -3.31700591
C       -8.45598569     -10.58584863      -5.13444477
C       -9.01374103     -11.65101908      -5.22802310
Br      -9.91558424     -13.37330960      -5.37933135
C       -1.79322805       1.79322805       1.79322805
C       -1.90607579       3.15312466       1.51824777
C       -2.71486413       3.95097415       2.33182814
C       -3.43550273       3.40495009       3.39785735
N       -4.19787625       4.19631393       4.25980748
N       -4.55933495       5.56500874       4.02079640
N       -5.81847774       5.70858450       4.73982788
C       -6.26918721       6.97868405       4.86308396
C       -5.45825509       8.12453477       4.81197192
C       -5.97916912       9.41013477       4.98551010
C       -7.33979707       9.56869993       5.21822493
C       -8.17626121       8.45924510       5.28018656
C       -7.63537764       7.18089760       5.10807052
C       -3.28033522       2.04249228       3.67314553
C       -2.47155951       1.23128782       2.87267078
H       -1.38091498       3.61366458       0.69023859
H       -2.81749118       5.01829983       2.14796395
H       -4.98795904       3.77109488       4.73107554
H       -4.39218720       7.98880528       4.63988579
H       -5.30539505      10.25500403       4.93725165
H       -9.23812069       8.56014136       5.46020011
H       -8.27863703       6.30540104       5.15512372
H       -3.80423837       1.62956096       4.52886221
H       -2.38150588       0.17783137       3.10894892
C       -7.88615085      10.88831894       5.40180930
C       -8.34372215      11.99349986       5.55556120
Br      -9.08357623      13.78048393       5.80416503
C        1.79322805      -1.79322805       1.79322805
C        2.51667332      -1.22360206       2.83717284
C        3.32099964      -2.03933559       3.63733119
C        3.39022076      -3.41970830       3.42838111
N        4.23662944      -4.24110701       4.17626121
N        4.90653988      -3.85325159       5.38534862
N        5.04896376      -5.11115922       6.10676715
C        5.85416568      -5.06335388       7.19343567
C        6.88140057      -4.12522870       7.38813252
C        7.70626740      -4.15209352       8.51645307
C        7.51248404      -5.13489431       9.47934359
C        6.50883053      -6.08481036       9.32205199
C        5.69652573      -6.04366946       8.18415057
C        2.67929089      -3.96318132       2.35350083
C        1.87417889      -3.16093863       1.54040059
H        2.47652553      -0.16154835       3.04674426
H        3.90467561      -1.62333976       4.45573958
H        3.98353664      -5.21576265       4.29083017
H        7.03189811      -3.36608519       6.62289497
H        8.48212074      -3.40431292       8.61121708
H        6.34080926      -6.85830664      10.05934626
H        4.90893020      -6.78118610       8.04904549
H        2.77051033      -5.02769084       2.16446036
H        1.32959316      -3.61655263       0.72214038
C        8.35880704      -5.17372760      10.64374445
C        9.06760255      -5.20625049      11.61893017
Br      10.21366494      -5.25883725      13.19572300
C       -0.00445707       0.01189536      -1.78238275
H       -0.66409135       0.67374010      -2.43557963
H        0.65740317      -0.63156657      -2.45157240
C       -0.90989263      -0.90692880      -0.91072765
C        0.90977584       0.90977584      -0.90977584
C       -0.00465871       1.77757030       0.00794375
H       -0.66225468       2.44313916      -0.64384735
H        0.64322798       2.43503045       0.67728295
C       -1.78241447       0.00034974      -0.00472694
H       -2.45427497      -0.65498947       0.64260836
H       -2.43311707       0.67328779      -0.65473579
C       -0.91132561       0.90220522       0.91563759
C       -0.01476271      -0.02253852       1.78660255
H       -0.67934791      -0.69751639       2.42135241
H        0.63392994       0.61504881       2.47327442
C        0.01484550      -1.77751727      -0.01636693
H        0.67870853      -2.42144646      -0.68295456
H       -0.62264859      -2.45592969       0.64226336
C        1.78714474       0.01002794       0.00389507
H        2.44202412       0.67113390       0.66197326
H        2.45385902      -0.65136977      -0.64189061
C        0.91606151      -0.90478549       0.90901405
