134
Properties=species:S:1:pos:R:3 pbc="F F F"
O        2.13318254       5.92583526      -0.99811729
C        2.80108484       5.42807991      -1.89482001
C        2.68716654       3.99889393      -2.24960844
C        1.81037466       3.16820531      -1.54120804
C        1.79400586       1.79400586      -1.79400586
C        2.64010044       1.26372667      -2.77163897
O        2.88272478      -0.12115614      -2.84648560
C        1.98714688      -0.99203395      -3.44734597
O        0.88176723      -0.73417352      -3.87918165
C        2.64598426      -2.33740275      -3.46778850
C        4.02149923      -2.48360790      -3.21232588
C        4.62787496      -3.73845967      -3.26687987
C        3.86681977      -4.86178224      -3.57512719
C        2.49940326      -4.73145626      -3.82437564
C        1.88713545      -3.47301939      -3.77345496
C        3.48145861       2.10782128      -3.51251997
C        3.50875163       3.47966595      -3.25234706
H        3.53558602       6.02406762      -2.46276360
H        1.18220677       3.59140181      -0.75882656
H        4.64699377      -1.62572600      -2.97760321
H        5.69389316      -3.83324429      -3.07358902
H        4.34268522      -5.83863889      -3.62376854
H        1.91158673      -5.61491885      -4.06325707
H        0.82095539      -3.38825118      -3.97292682
H        4.19474374       4.12639945      -3.79504920
C        4.38363630       1.58963856      -4.50809120
C        5.13921013       1.15566054      -5.34188210
Br       6.36090910       0.45395477      -6.69005147
O       -1.67162381      -1.39112417      -5.99438710
C       -2.36435857      -2.26668261      -5.49294357
C       -2.48368346      -2.42286971      -4.02911575
C       -1.77886944      -1.56803402      -3.17288454
C       -1.79400586      -1.79400586      -1.79400586
C       -2.53430023      -2.86172547      -1.27944037
O       -2.33666779      -3.31144085       0.04005440
C       -2.90393907      -2.66671804       1.12819820
O       -3.52874032      -1.62534355       1.12730852
C       -2.59973875      -3.50716552       2.33053425
C       -2.12673280      -4.82567691       2.20219250
C       -1.87876761      -5.60768299       3.33015543
C       -2.09841815      -5.08088141       4.59913486
C       -2.56149458      -3.77150627       4.74067822
C       -2.81446388      -2.98385564       3.61074851
C       -3.27818378      -3.68560391      -2.13801216
C       -3.25387663      -3.46936740      -3.51752061
H       -2.91295748      -2.99291781      -6.11654195
H       -1.17913980      -0.76143802      -3.59185733
H       -1.95324422      -5.27127041       1.22564364
H       -1.51991263      -6.62763962       3.21331436
H       -1.91084980      -5.69442173       5.47745667
H       -2.72923284      -3.36704979       5.73635768
H       -3.17766420      -1.96624225       3.73827541
H       -3.79352226      -4.13668027      -4.18598985
C       -4.02990073      -4.80928909      -1.64217625
C       -4.65946366      -5.75037543      -1.22691367
Br      -5.67741369      -7.27203245      -0.55546921
O       -2.89657455       0.50192496       5.65863558
C       -3.22883369       1.61679025       5.27836082
C       -2.91334327       2.10259727       3.91972838
C       -2.19912667       1.28852558       3.03213575
C       -1.79400586       1.79400586       1.79400586
C       -2.12714518       3.10505150       1.44326939
O       -1.49117899       3.75096762       0.36590763
C       -1.86590799       3.52614927      -0.94959836
O       -2.67163580       2.71579633      -1.36065678
C       -1.07949201       4.48598286      -1.78910485
C       -0.39320011       5.57066100      -1.21364391
C        0.30805079       6.47515092      -2.01080497
C        0.33352895       6.30528520      -3.39159153
C       -0.33795441       5.22928206      -3.97491383
C       -1.04562206       4.32042491      -3.17847595
C       -2.88520092       3.90007772       2.31652121
C       -3.27983207       3.40114104       3.55979154
H       -3.76043172       2.31661758       5.94536795
H       -1.91757381       0.28085001       3.33401133
H       -0.40019526       5.73795283      -0.13927710
H        0.82758344       7.31244221      -1.55062088
H        0.87535949       7.01541230      -4.01223795
H       -0.31177149       5.10311083      -5.05495737
H       -1.56586472       3.48874793      -3.64898162
H       -3.82747081       4.03377060       4.25495098
C       -3.22239756       5.26287740       1.99609110
C       -3.50479975       6.40422213       1.72773088
Br      -3.96142021       8.24968003       1.29381511
O        2.57776327      -5.79176705       0.68760477
C        3.11913533      -5.32416944       1.68067999
C        2.84471740      -3.94838566       2.14256586
C        1.95798774      -3.13283225       1.42896801
C        1.79400586      -1.79400586       1.79400586
C        2.50237061      -1.28658009       2.88651537
O        2.60936126       0.10103085       3.09972383
C        1.59004198       0.83440027       3.68681720
O        0.48065872       0.44573303       3.99184966
C        2.11821247       2.22286111       3.88101866
C        3.49104347       2.50726331       3.76643705
C        3.97261885       3.79835736       3.98203368
C        3.08818265       4.82045414       4.31243620
C        1.72244896       4.55306089       4.42293456
C        1.23505146       3.25757922       4.21009878
C        3.35244171      -2.12140749       3.62795065
C        3.52766687      -3.45629892       3.25679885
H        3.85491632      -5.90591240       2.26158853
H        1.43955198      -3.53362707       0.55925609
H        4.21036059       1.73035297       3.51886336
H        5.03786645       3.99995705       3.89632849
H        3.46634585       5.82527807       4.48674707
H        1.03781147       5.35814229       4.68025577
H        0.16820105       3.06533531       4.30276529
H        4.22211281      -4.09015357       3.80392601
C        4.11605413      -1.62291165       4.74240028
C        4.75557953      -1.20542139       5.67575184
Br       5.78963802      -0.53037494       7.18490238
C       -0.00445707       0.01189536      -1.78238275
H       -0.66409135       0.67374010      -2.43557963
H        0.65740317      -0.63156657      -2.45157240
C       -0.90989263      -0.90692880      -0.91072765
C        0.90977584       0.90977584      -0.90977584
C       -0.00465871       1.77757030       0.00794375
H       -0.66225468       2.44313916      -0.64384735
H        0.64322798       2.43503045       0.67728295
C       -1.78241447       0.00034974      -0.00472694
H       -2.45427497      -0.65498947       0.64260836
H       -2.43311707       0.67328779      -0.65473579
C       -0.91132561       0.90220522       0.91563759
C       -0.01476271      -0.02253852       1.78660255
H       -0.67934791      -0.69751639       2.42135241
H        0.63392994       0.61504881       2.47327442
C        0.01484550      -1.77751727      -0.01636693
H        0.67870853      -2.42144646      -0.68295456
H       -0.62264859      -2.45592969       0.64226336
C        1.78714474       0.01002794       0.00389507
H        2.44202412       0.67113390       0.66197326
H        2.45385902      -0.65136977      -0.64189061
C        0.91606151      -0.90478549       0.90901405
