122
Properties=species:S:1:pos:R:3 pbc="F F F"
C        1.79176566       1.79176566      -1.79176566
C        1.28237411       2.98708557      -2.29988765
C        2.08311749       3.79833909      -3.10738335
C        3.38893075       3.40518044      -3.40441914
O        4.17143980       4.19953154      -4.19505278
C        3.89687296       2.20320262      -2.89811224
C        5.27258291       1.77837997      -3.23065838
N        5.77034507       0.66868702      -2.77866266
C        7.07957391       0.35351065      -3.16473643
C        7.30223356      -0.78717432      -3.93806536
C        8.59749922      -1.15171048      -4.31330798
C        9.68600031      -0.37441449      -3.90767377
Br      11.41515311      -0.93423684      -4.45726692
C        9.47214536       0.76343310      -3.12116544
Cl      10.76281534       1.77500195      -2.57422790
C        8.17201028       1.11820833      -2.74673981
C        3.09476628       1.39420771      -2.08450915
H        0.26421583       3.29371205      -2.07266785
H        1.67093809       4.72599774      -3.49407465
H        3.66825267       4.98941472      -4.45707004
H        5.85988596       2.44466486      -3.88841449
H        6.45656382      -1.39861285      -4.24445835
H        8.74399764      -2.04505043      -4.91597930
H        8.00287851       1.98961630      -2.11999424
H        3.48685971       0.46042025      -1.68802249
C       -1.79176566      -1.79176566      -1.79176566
C       -1.78073390      -3.17540347      -1.61320997
C       -2.58440583      -3.98804401      -2.41639008
C       -3.39194064      -3.40970689      -3.39688280
O       -4.17759405      -4.20586452      -4.18256555
C       -3.39808416      -2.02184275      -3.57826091
C       -4.23793777      -1.41299933      -4.63068416
N       -4.26285441      -0.13031114      -4.82452921
C       -5.08324224       0.34240836      -5.85698712
C       -4.49710927       0.98996197      -6.94597730
C       -5.28589206       1.50450574      -7.97771040
C       -6.67679320       1.37888518      -7.92135158
Br      -7.68065046       2.10348734      -9.36102008
C       -7.27284786       0.74254865      -6.82644469
Cl      -8.98433303       0.55020031      -6.67791247
C       -6.47517814       0.23424581      -5.79602609
C       -2.59618411      -1.20860267      -2.76869635
H       -1.14980748      -3.62847053      -0.85231773
H       -2.56417556      -5.06330945      -2.26352549
H       -4.05441306      -5.13547456      -3.92484981
H       -4.84132215      -2.09900703      -5.25263614
H       -3.41557071       1.09794205      -6.98478066
H       -4.80463996       2.00466319      -8.81494974
H       -6.93456102      -0.24317980      -4.93474823
H       -2.59981946      -0.12967492      -2.90580808
C       -1.79176566       1.79176566       1.79176566
C       -3.17886131       1.73877367       1.65171235
C       -3.99147619       2.54275694       2.45460678
C       -3.40917209       3.39843033       3.39092791
O       -4.20525015       4.18504930       4.17572467
C       -2.01721450       3.45424709       3.52672623
C       -1.40162531       4.37595924       4.50403671
N       -0.11472477       4.45199197       4.65097802
C        0.36584268       5.36761305       5.59605061
C        1.14997377       6.43882132       5.16427704
C        1.67481648       7.35257971       6.08133349
C        1.42151148       7.19405510       7.44671598
Br       2.16906578       8.47643199       8.63081699
C        0.64714655       6.11516199       7.88872846
Cl       0.29148436       5.84486536       9.55866419
C        0.12939871       5.20287904       6.96347808
C       -1.20468470       2.64372789       2.72507054
H       -3.63459627       1.07547284       0.92052663
H       -5.06954332       2.48852877       2.33293840
H       -5.13813107       4.02217688       3.95442948
H       -2.08550715       5.00514056       5.10231760
H        1.35675253       6.55618554       4.10297632
H        2.28269050       8.17844732       5.71916969
H       -0.45592727       4.35291194       7.30364984
H       -0.12279137       2.68334994       2.82916114
C        1.79176566      -1.79176566       1.79176566
C        3.13008767      -1.45042317       1.98883649
C        3.94251582      -2.25254693       2.79377717
C        3.41008462      -3.39469390       3.39375182
O        4.20607518      -4.17912957       4.18081937
C        2.06856611      -3.73865471       3.19096700
C        1.51199739      -4.95954315       3.81008073
N        0.27339700      -5.30581959       3.63847816
C       -0.14964843      -6.48828599       4.25918343
C       -0.57013117      -7.55729204       3.46596373
C       -1.03066697      -8.73974363       4.05002005
C       -1.07976484      -8.85710710       5.44191733
Br      -1.71740919     -10.49480729       6.16078510
C       -0.67229251      -7.78495090       6.24408551
Cl      -0.70623428      -7.84698797       7.97129151
C       -0.21666397      -6.60333368       5.65028870
C        1.25447627      -2.93056074       2.38844612
H        3.54796593      -0.56300254       1.51962727
H        4.98204505      -1.97183235       2.93713309
H        5.10038782      -3.79866282       4.21568678
H        2.19916571      -5.57138737       4.42241223
H       -0.54276331      -7.46231631       2.38285633
H       -1.35257597      -9.55775973       3.40974275
H        0.08223448      -5.76141676       6.26883781
H        0.21118781      -3.19397395       2.23014070
C       -0.00445707       0.01189536      -1.78238275
H       -0.66409135       0.67374010      -2.43557963
H        0.65740317      -0.63156657      -2.45157240
C       -0.90989263      -0.90692880      -0.91072765
C        0.90977584       0.90977584      -0.90977584
C       -0.00465871       1.77757030       0.00794375
H       -0.66225468       2.44313916      -0.64384735
H        0.64322798       2.43503045       0.67728295
C       -1.78241447       0.00034974      -0.00472694
H       -2.45427497      -0.65498947       0.64260836
H       -2.43311707       0.67328779      -0.65473579
C       -0.91132561       0.90220522       0.91563759
C       -0.01476271      -0.02253852       1.78660255
H       -0.67934791      -0.69751639       2.42135241
H        0.63392994       0.61504881       2.47327442
C        0.01484550      -1.77751727      -0.01636693
H        0.67870853      -2.42144646      -0.68295456
H       -0.62264859      -2.45592969       0.64226336
C        1.78714474       0.01002794       0.00389507
H        2.44202412       0.67113390       0.66197326
H        2.45385902      -0.65136977      -0.64189061
C        0.91606151      -0.90478549       0.90901405
