129
Properties=species:S:1:pos:R:3 pbc="F F F"
C        0.00000000       0.00000000       0.00000000
O        0.66632824       5.20133222      -7.90111697
C        1.30255326       4.78736426      -6.93131864
N        0.66557958       4.04444101      -5.96119676
N        1.31881033       3.56160849      -4.87158205
C        0.59491526       2.85327999      -4.06342401
C        1.16468395       2.25754911      -2.83780229
C        2.50093034       2.48207884      -2.48784701
C        3.02384469       1.90254146      -1.33153906
C        2.21402400       1.09968775      -0.52708163
C        0.88219121       0.88219121      -0.88219121
C        0.34789730       1.45815996      -2.03447796
C        2.80005109       5.03462292      -6.71493270
O        3.40991806       5.90666167      -7.65710390
C        3.33711109       7.25216858      -7.43015545
C        4.11121568       8.02739639      -8.29980394
C        4.14273209       9.41855714      -8.18171560
C        3.39024497      10.03884802      -7.18896681
Br       3.42927829      11.92032045      -7.01667940
C        2.60598098       9.27961786      -6.32297218
C        2.57651625       7.88527125      -6.44580691
H       -0.32166869       3.86131463      -6.10668760
H       -0.47568594       2.66127164      -4.25873529
H        3.13986609       3.10449475      -3.10974563
H        4.06223184       2.07486422      -1.05875389
H        2.63022391       0.64831293       0.37106357
H       -0.68991473       1.27938794      -2.30116785
H        3.29393184       4.06280685      -6.83820181
H        3.00447015       5.35721767      -5.68702906
H        4.69578252       7.54035713      -9.07665714
H        4.75222364      10.00093617      -8.86667778
H        2.00942425       9.76059180      -5.55201050
H        1.94111685       7.33099904      -5.76364257
O       -1.20170303      -8.46479027      -4.10228413
C       -1.69084515      -7.34013463      -3.99025638
N       -1.09602356      -6.41439288      -3.16080090
N       -1.59197795      -5.15918859      -3.00083433
C       -0.90625399      -4.39121929      -2.21414599
C       -1.31713112      -2.99830743      -1.94459681
C       -2.49304623      -2.47954616      -2.49826380
C       -2.85932115      -1.15831923      -2.24028483
C       -2.05223835      -0.35674441      -1.43181063
C       -0.88219121      -0.88219121      -0.88219121
C       -0.50715820      -2.20215698      -1.13122005
C       -2.94728025      -6.86994401      -4.73238244
O       -3.61672031      -7.87483717      -5.48212616
C       -4.51624146      -8.67161156      -4.83158210
C       -5.25925559      -9.50852624      -5.67063417
C       -6.22349171     -10.37245872      -5.14705440
C       -6.44244500     -10.40249813      -3.77311668
Br      -7.74825833     -11.56394940      -3.05407041
C       -5.70165638      -9.58227688      -2.92463776
C       -4.73517348      -8.71856511      -3.45385583
H       -0.25369202      -6.71246037      -2.68018114
H        0.01542409      -4.74332537      -1.71641970
H       -3.12692872      -3.09612442      -3.13105333
H       -3.77199390      -0.75317473      -2.67068131
H       -2.34279977       0.67368020      -1.23835369
H        0.40727927      -2.59874268      -0.69917765
H       -2.61282752      -6.12109610      -5.46101687
H       -3.63884881      -6.35493932      -4.05492875
H       -5.08392796      -9.48531893      -6.74354990
H       -6.79024289     -11.01242139      -5.81717332
H       -5.86288609      -9.60915625      -1.84998421
H       -4.16802918      -8.10826365      -2.75946562
O       -7.10128979       0.39525040       6.27223724
C       -6.31510237       1.08458210       5.62155169
N       -5.36747315       0.47681500       4.82692920
N       -4.47661016       1.18826180       4.08712891
C       -3.66823701       0.47864067       3.36474159
C       -2.64668815       1.10916325       2.50418396
C       -2.49077772       2.49968922       2.48038924
C       -1.52706154       3.07741656       1.65344711
C       -0.72150876       2.26798097       0.85130366
C       -0.88219121       0.88219121       0.88219121
C       -1.84062695       0.29332854       1.70657973
C       -6.31270874       2.61769925       5.61919871
O       -7.21063470       3.22387275       6.53917618
C       -6.78959572       3.40310901       7.82673039
C       -7.65687169       4.16408056       8.61746376
C       -7.35276417       4.43747061       9.95277004
C       -6.17426845       3.94162670      10.50216466
Br      -5.75010779       4.30961791      12.30655243
C       -5.30668055       3.17282272       9.72906775
C       -5.61620189       2.90025739       8.39113513
H       -5.37462422      -0.53758125       4.80929057
H       -3.71174102      -0.62556243       3.35814240
H       -3.11537381       3.13831391       3.10041875
H       -1.40538732       4.15774994       1.63271268
H        0.02524142       2.72632377       0.20639091
H       -1.95733956      -0.78664198       1.71994348
H       -6.64884277       2.92496726       4.62113046
H       -5.29691707       3.01307358       5.73872623
H       -8.57861122       4.54764886       8.18653671
H       -8.03975452       5.03203668      10.54804641
H       -4.38959212       2.77573557      10.15669886
H       -4.92381576       2.28456349       7.82737920
O        6.79172217      -6.60769094       0.36936432
C        6.02703595      -5.93370625       1.06049396
N        5.20537437      -5.00258269       0.46326028
N        4.34175228      -4.23326362       1.17698497
C        3.61124210      -3.42650242       0.47387475
C        2.62298366      -2.52987062       1.10718108
C        2.47977258      -2.49231464       2.49876897
C        1.53376703      -1.64618090       3.07797728
C        0.73189943      -0.84004412       2.26884984
C        0.88219121      -0.88219121       0.88219121
C        1.82607457      -1.72234898       0.29211167
C        5.90695109      -6.05888585       2.58376976
O        6.84915661      -6.93088111       3.19364592
C        8.07973172      -6.42871309       3.51099032
C        8.87910647      -7.29302558       4.26628396
C       10.15962361      -6.91120072       4.67218050
C       10.64559938      -5.65694057       4.31551986
Br      12.37496275      -5.12772641       4.86358897
C        9.86432263      -4.79031516       3.55393323
C        8.58158257      -5.17778902       3.14822283
H        5.26621937      -4.92676024      -0.54664608
H        3.69296184      -3.37849189      -0.62713275
H        3.09875575      -3.11842640       3.13692431
H        1.42022438      -1.61663494       4.15899062
H       -0.00606386      -0.18560973       2.72792740
H        1.93185374      -1.74756042      -0.78877310
H        4.91965014      -6.49491836       2.78037199
H        5.91100187      -5.07329159       3.06442342
H        8.49811486      -8.27376418       4.54091774
H       10.76257440      -7.59754404       5.25971916
H       10.24346240      -3.81332734       3.26523681
H        8.01112175      -4.48191237       2.54272434
