161
Properties=species:S:1:pos:R:3 pbc="F F F"
C        0.00000000       0.00000000       0.00000000
C        0.88204784       0.88204784      -0.88204784
C        2.07692136       1.39213883      -0.37273991
C        2.87695648       2.20425129      -1.17472003
C        2.47920224       2.48869203      -2.47818443
F        3.25314896       3.28517828      -3.23016705
C        1.29116270       1.97344677      -3.00781220
C        0.87067966       2.31906193      -4.41454914
N        0.07841311       3.54866324      -4.41123994
C       -0.34540258       4.04020390      -5.74823475
C       -1.12026847       5.37524401      -5.53014157
C       -0.22102277       6.52507143      -5.08456306
O        0.86485495       6.71763378      -5.98647235
C        1.68438992       5.55873227      -6.10543715
C        0.86867279       4.39575827      -6.65402156
C       -1.32354542       3.02440032      -6.38643001
C       -2.48804368       2.64074750      -5.68562535
C       -3.40675342       1.73849373      -6.22859998
C       -3.18044822       1.18807565      -7.48580361
C       -2.03187913       1.53969665      -8.18730561
Br      -1.71309109       0.78615958      -9.89354343
C       -1.10949039       2.44285155      -7.64814678
C        0.48326970       1.17057526      -2.18902957
H        2.38562025       1.17071318       0.64637695
H        3.80488998       2.61895659      -0.79319601
H        0.30126365       1.47813762      -4.82679238
H        1.77458990       2.41551487      -5.02476599
H        0.61852384       4.26564796      -3.93128628
H       -1.93173226       5.26096456      -4.80092334
H       -1.59407744       5.66455214      -6.47910321
H       -0.80000455       7.45455182      -5.06573634
H        0.16927458       6.37429821      -4.07199810
H        2.49320330       5.79966323      -6.80302353
H        2.14859776       5.32773560      -5.14071872
H        0.49452254       4.71010498      -7.63859330
H        1.52028720       3.53378457      -6.83228902
H       -2.68062643       3.04434523      -4.69228441
H       -4.29629690       1.46654811      -5.66650570
H       -3.89789418       0.48868335      -7.90551335
H       -0.22712622       2.68161265      -8.23417941
H       -0.45582576       0.78015354      -2.57568932
C       -0.88204784      -0.88204784      -0.88204784
C       -2.05229012      -0.35739097      -1.43211901
C       -2.86146849      -1.16506869      -2.22939062
C       -2.48717534      -2.48315286      -2.47575051
F       -3.28611476      -3.25070966      -3.23166987
C       -1.30991522      -3.01949782      -1.94300863
C       -0.94156383      -4.45872056      -2.20400634
N       -1.53642367      -5.31979813      -1.18209449
C       -1.30575694      -6.77715357      -1.36012556
C       -2.06099026      -7.51254057      -0.21158629
C       -3.57906759      -7.45258654      -0.35695758
O       -4.00107849      -7.94080771      -1.62707487
C       -3.44115175      -7.20016197      -2.70724562
C       -1.92255700      -7.31074872      -2.68514691
C        0.20351585      -7.08437561      -1.20642515
C        0.88156331      -6.68670239      -0.03319009
C        2.23982202      -6.95577241       0.15561010
C        2.95966408      -7.62338508      -0.82971006
C        2.31569068      -8.01044865      -2.00036516
Br       3.29204473      -8.90961965      -3.34903700
C        0.95603695      -7.74377117      -2.19377372
C       -0.50944790      -2.20534249      -1.12808413
H       -2.34456125       0.67196284      -1.23735806
H       -3.78092135      -0.77825997      -2.65786126
H        0.15106244      -4.54492572      -2.21233037
H       -1.28488301      -4.71960550      -3.21038226
H       -2.53527745      -5.12570986      -1.15447077
H       -1.78663915      -7.11802372       0.77450723
H       -1.76220527      -8.57056828      -0.21680435
H       -4.04380262      -8.08415117       0.40767019
H       -3.96735363      -6.43876824      -0.20944902
H       -3.82617091      -7.63366131      -3.63605784
H       -3.78704461      -6.16171566      -2.66829181
H       -1.68305827      -8.37922845      -2.78093410
H       -1.49942518      -6.81928886      -3.56764675
H        0.34498482      -6.14773774       0.74674970
H        2.73243884      -6.64102268       1.07182692
H        4.01483116      -7.83264416      -0.67848953
H        0.50122454      -8.06337525      -3.12651514
H        0.39761318      -2.61196444      -0.68566584
C       -0.88204784       0.88204784       0.88204784
C       -2.08322920       0.37706130       1.38150960
C       -2.89209214       1.18508920       2.17874646
C       -2.48694834       2.48349115       2.47563921
F       -3.28550873       3.25233616       3.23064940
C       -1.27893598       2.99943589       1.99404980
C       -0.87662131       4.41861966       2.30904974
N       -1.41488119       5.32683072       1.29660438
C       -1.14709382       6.77071779       1.52522446
C       -1.84544570       7.56190019       0.37777123
C       -3.36832376       7.54356125       0.47672670
O       -3.81399379       8.00687550       1.74809179
C       -3.30886607       7.21833719       2.82135607
C       -1.78770841       7.28363670       2.84710751
C        0.37448349       7.03661565       1.42515274
C        1.07569212       6.65320257       0.26081872
C        2.44633066       6.88656873       0.12010223
C        3.15535506       7.50299449       1.14579163
C        2.48795736       7.87485443       2.30822606
Br       3.44908374       8.70424539       3.71145026
C        1.11585604       7.64378578       2.45357819
C       -0.47843333       2.18571625       1.17872495
H       -2.39952163      -0.63685336       1.14728820
H       -3.83499695       0.81382176       2.56822386
H        0.21731228       4.47152513       2.35198080
H       -1.24236921       4.66015095       3.31235061
H       -2.41770359       5.16387269       1.23388181
H       -1.55313226       7.18834274      -0.61131936
H       -1.51608396       8.60982010       0.42367384
H       -3.79106420       8.21099680      -0.28177740
H       -3.78151721       6.54668201       0.28737168
H       -3.70887852       7.63586125       3.75115028
H       -3.68370202       6.19239165       2.74095842
H       -1.52000794       8.34113531       2.98207757
H       -1.40598731       6.75398417       3.72638932
H        0.54733914       6.15376202      -0.55041966
H        2.95694455       6.58407244      -0.79037097
H        4.22028358       7.68465004       1.03193606
H        0.64265654       7.94950689       3.38181549
H        0.45309216       2.57756206       0.77554721
C        0.88204784      -0.88204784       0.88204784
C        2.24313978      -1.00064388       0.59801645
C        3.04581842      -1.81261013       1.39749925
C        2.48178434      -2.48793853       2.47635583
F        3.26574043      -3.27773239       3.22502147
C        1.12184493      -2.36820015       2.78237660
C        0.53113795      -3.13190195       3.94125082
N        0.08953226      -4.45324347       3.49554056
C       -0.45389970      -5.33837782       4.55855795
C       -0.80997550      -6.70229919       3.89279343
C        0.41882987      -7.50165992       3.46812193
O        1.31712963      -7.69497778       4.55685366
C        1.77936815      -6.46422536       5.10496582
C        0.60598033      -5.66167881       5.65079349
C       -1.76204420      -4.72996423       5.11936487
C       -2.82265008      -4.42162170       4.23935755
C       -4.02711658      -3.88512629       4.70233058
C       -4.20008040      -3.63405775       6.05945370
C       -3.16273999      -3.91538412       6.94247899
Br      -3.38807637      -3.56614645       8.78854183
C       -1.95531837      -4.45296082       6.48386549
C        0.31737108      -1.56233365       1.96316980
H        2.68220705      -0.47400449      -0.24625507
H        4.10471743      -1.92581928       1.18650585
H       -0.30106295      -2.55145328       4.35580332
H        1.29076620      -3.19708147       4.72702310
H        0.87630813      -4.90508798       3.03406198
H       -1.46288139      -6.57204673       3.02099030
H       -1.37454490      -7.30840575       4.61571706
H        0.10711215      -8.49244557       3.12072588
H        0.95163349      -7.02742432       2.63651308
H        2.46780301      -6.70707183       5.92101521
H        2.35259117      -5.91132089       4.35314002
H        0.13505556      -6.28067670       6.42748856
H        0.97182901      -4.76044233       6.15408946
H       -2.70688975      -4.59307252       3.16982044
H       -4.82669345      -3.66288835       4.00056202
H       -5.13852119      -3.21894106       6.41588266
H       -1.17561479      -4.65118449       7.21309614
H       -0.74703157      -1.47563501       2.17141366
