182
Properties=species:S:1:pos:R:3 pbc="F F F"
C        1.79195186       1.79195186      -1.79195186
C        2.98682538       2.30204285      -1.28264394
C        3.78686051       3.11415532      -2.08462405
C        3.38910627       3.39859605      -3.38808846
F        4.16305299       4.19508230      -4.14007107
C        2.20106672       2.88335080      -3.91771622
C        1.78058368       3.22896595      -5.32445316
N        0.98831713       4.45856727      -5.32114396
C        0.56450144       4.95010793      -6.65813877
C       -0.21036444       6.28514804      -6.44004559
C        0.68888125       7.43497545      -5.99446709
O        1.77475897       7.62753780      -6.89637637
C        2.59429395       6.46863629      -7.01534117
C        1.77857681       5.30566230      -7.56392558
C       -0.41364140       3.93430435      -7.29633404
C       -1.57813966       3.55065153      -6.59552937
C       -2.49684940       2.64839775      -7.13850401
C       -2.27054419       2.09797968      -8.39570763
C       -1.12197510       2.44960067      -9.09720963
Br      -0.80318707       1.69606360     -10.80344745
C       -0.19958636       3.35275557      -8.55805080
C        1.39317372       2.08047928      -3.09893359
H        3.29552427       2.08061720      -0.26352707
H        4.71479400       3.52886061      -1.70310003
H        1.21116767       2.38804164      -5.73669641
H        2.68449393       3.32541890      -5.93467001
H        1.52842787       5.17555199      -4.84119030
H       -1.02182824       6.17086858      -5.71082737
H       -0.68417342       6.57445616      -7.38900724
H        0.10989947       8.36445584      -5.97564036
H        1.07917860       7.28420224      -4.98190213
H        3.40310732       6.70956725      -7.71292756
H        3.05850179       6.23763962      -6.05062275
H        1.40442657       5.62000901      -8.54849732
H        2.43019123       4.44368860      -7.74219304
H       -1.77072240       3.95424925      -5.60218844
H       -3.38639287       2.37645214      -6.57640972
H       -2.98799015       1.39858738      -8.81541738
H        0.68277781       3.59151667      -9.14408344
H        0.45407827       1.69005757      -3.48559334
C       -1.79195186      -1.79195186      -1.79195186
C       -2.34816764      -1.26506378      -2.95828075
C       -3.16021914      -2.06737467      -3.75804607
C       -3.39861631      -3.38835024      -3.38882424
F       -4.19567392      -4.14096902      -4.16156343
C       -2.83689409      -3.93521847      -2.23002119
C       -3.13303084      -5.36168160      -1.83929035
N       -4.34002225      -5.41340541      -1.01460070
C       -4.78375228      -6.77428091      -0.61471494
C       -6.10233309      -6.61381346       0.20131736
C       -7.28797621      -6.17611853      -0.65422905
O       -7.48612157      -7.05359146      -1.75896011
C       -6.34743189      -7.11865276      -2.61218677
C       -5.14819203      -7.65668004      -1.84329262
C       -3.72470780      -7.41024922       0.31796003
C       -3.32806672      -6.73058115       1.49060662
C       -2.38667217      -7.27293134       2.36955115
C       -1.80922975      -8.50801043       2.09409706
C       -2.17340578      -9.18792066       0.93649125
Br      -1.38351747     -10.86364026       0.55083374
C       -3.11569984      -8.64930976       0.05378959
C       -2.03431038      -3.11658198      -1.42169423
H       -2.16267767      -0.23234352      -3.24464736
H       -3.61035622      -1.67269848      -4.66369995
H       -2.26602802      -5.76573325      -1.30414445
H       -3.23794083      -5.94990459      -2.75673741
H       -5.08418331      -4.93906859      -1.52191826
H       -5.98533822      -5.90371169       1.02918219
H       -6.35299195      -7.58271733       0.65641929
H       -8.20134994      -6.19837146      -0.05027427
H       -7.17515570      -5.14970439      -1.02042287
H       -6.59175880      -7.80070068      -3.43314265
H       -6.15519923      -6.13586467      -3.05570026
H       -5.42565901      -8.65918867      -1.48808522
H       -4.30000495      -7.79366288      -2.52240504
H       -3.75266107      -5.75422907       1.72117486
H       -2.10550579      -6.72758369       3.26662049
H       -1.07938299      -8.92737882       2.78074721
H       -3.36286786      -9.21785753      -0.83765252
H       -1.60799448      -3.51735687      -0.50437783
C       -1.79195186       1.79195186       1.79195186
C       -2.80092661       2.56051683       1.21006874
C       -3.59957035       3.37206131       2.01400821
C       -3.38759002       3.39851120       3.38968956
F       -4.15468821       4.19757074       4.14594741
C       -2.38939146       2.62316724       3.98957504
C       -2.16370366       2.69087676       5.47942238
N       -1.21548082       3.75961502       5.79293252
C       -0.95423938       3.97907033       7.23943843
C        0.02765271       5.18408054       7.35840136
C       -0.61260928       6.51876253       6.98695197
O       -1.79473946       6.75902997       7.74490371
C       -2.77874870       5.74739450       7.55212820
C       -2.23897493       4.39913731       8.01005245
C       -0.24995982       2.73472247       7.83231469
C        0.94835490       2.26637304       7.25002311
C        1.62657585       1.15622169       7.76040652
C        1.11874766       0.47822919       8.86366159
C       -0.06868592       0.91257566       9.44357361
Br      -0.77019313      -0.01200776      10.93813862
C       -0.75100295       2.02367585       8.93654121
C       -1.57897655       1.82172026       3.17188979
H       -2.96429596       2.54039883       0.13497375
H       -4.38282552       3.98505979       1.57886934
H       -1.79591067       1.71715829       5.82283676
H       -3.13344975       2.84853633       5.96259676
H       -1.56102265       4.61713293       5.36701458
H        0.92442521       5.04127647       6.74301645
H        0.37343310       5.25297046       8.39975262
H        0.08745619       7.33226815       7.20518371
H       -0.84666375       6.58021507       5.91840414
H       -3.64970056       6.01783938       8.15806219
H       -3.10426451       5.73604862       6.50645103
H       -1.99280611       4.50396150       9.07616528
H       -3.02682186       3.64093904       7.94831197
H        1.35859843       2.76923785       6.37507586
H        2.54939510       0.82286589       7.29299819
H        1.64984453      -0.38302940       9.25888853
H       -1.67550405       2.32005816       9.42281570
H       -0.78223508       1.22983512       3.61765897
C        1.79195186      -1.79195186       1.79195186
C        1.24036486      -2.90706052       2.42408679
C        2.04323746      -3.70640144       3.23600097
C        3.38880302      -3.38837051       3.39861724
F        4.14258493      -4.15910881       4.19651263
C        3.95974345      -2.28193712       2.76045318
C        5.41419428      -1.94476194       2.97504657
N        5.55787599      -1.07090923       4.13924314
C        6.95408687      -0.71506226       4.50359901
C        6.89077709       0.16486296       5.78891506
C        6.47095043      -0.61645315       7.03092021
O        7.30705545      -1.75068083       7.24093686
C        7.28181371      -2.65538873       6.14106897
C        7.79731919      -1.96577734       4.88506817
C        7.58102564       0.13965981       3.37563115
C        6.93615846       1.32378334       2.95566613
C        7.47272892       2.13439287       1.95171631
C        8.66649722       1.77704530       1.33369120
C        9.31077141       0.60648891       1.72055269
Br      10.92961886       0.10946139       0.87616651
C        8.77780842      -0.20800295       2.72540864
C        3.14139299      -1.47288117       1.95831244
H        0.18856215      -3.15337240       2.29773399
H        1.63019452      -4.57214544       3.74441468
H        5.80101840      -1.46758782       2.06729950
H        5.96559685      -2.88285298       3.09613302
H        5.09646921      -1.52248630       4.92621464
H        6.21323586       1.01864514       5.66527700
H        7.88934217       0.58538480       5.97533260
H        6.56193840       0.02552536       7.91358263
H        5.42527349      -0.93951554       6.98049394
H        7.93753830      -3.49536594       6.39269789
H        6.27259968      -3.06112837       6.01303610
H        8.82625188      -1.64531460       5.10136641
H        7.86493547      -2.68723272       4.06390468
H        5.99155737       1.61765753       3.41181545
H        6.95508281       3.04239605       1.65378223
H        9.08161715       2.41075691       0.55515436
H        9.31728677      -1.11296029       2.98813085
H        3.56213569      -0.59472925       1.47286423
C       -0.00445707       0.01189536      -1.78238275
H       -0.66409135       0.67374010      -2.43557963
H        0.65740317      -0.63156657      -2.45157240
C       -0.90989263      -0.90692880      -0.91072765
C        0.90977584       0.90977584      -0.90977584
C       -0.00465871       1.77757030       0.00794375
H       -0.66225468       2.44313916      -0.64384735
H        0.64322798       2.43503045       0.67728295
C       -1.78241447       0.00034974      -0.00472694
H       -2.45427497      -0.65498947       0.64260836
H       -2.43311707       0.67328779      -0.65473579
C       -0.91132561       0.90220522       0.91563759
C       -0.01476271      -0.02253852       1.78660255
H       -0.67934791      -0.69751639       2.42135241
H        0.63392994       0.61504881       2.47327442
C        0.01484550      -1.77751727      -0.01636693
H        0.67870853      -2.42144646      -0.68295456
H       -0.62264859      -2.45592969       0.64226336
C        1.78714474       0.01002794       0.00389507
H        2.44202412       0.67113390       0.66197326
H        2.45385902      -0.65136977      -0.64189061
C        0.91606151      -0.90478549       0.90901405
