190
Properties=species:S:1:pos:R:3 pbc="F F F"
C        1.79195186       1.79195186      -1.79195186
C        2.98682538       2.30204285      -1.28264394
C        3.78686051       3.11415532      -2.08462405
C        3.38910627       3.39859605      -3.38808846
F        4.16305299       4.19508230      -4.14007107
C        2.20106672       2.88335080      -3.91771622
C        1.78058368       3.22896595      -5.32445316
N        0.98831713       4.45856727      -5.32114396
C        0.56450144       4.95010793      -6.65813877
C       -0.21036444       6.28514804      -6.44004559
C        0.68888125       7.43497545      -5.99446709
O        1.77475897       7.62753780      -6.89637637
C        2.59429395       6.46863629      -7.01534117
C        1.77857681       5.30566230      -7.56392558
C       -0.41364140       3.93430435      -7.29633404
C       -1.57813966       3.55065153      -6.59552937
C       -2.49684940       2.64839775      -7.13850401
C       -2.27054419       2.09797968      -8.39570763
C       -1.12197510       2.44960067      -9.09720963
C       -0.19958636       3.35275557      -8.55805080
C        1.39317372       2.08047928      -3.09893359
H        3.29552427       2.08061720      -0.26352707
H        4.71479400       3.52886061      -1.70310003
H        1.21116767       2.38804164      -5.73669641
H        2.68449393       3.32541890      -5.93467001
H        1.52842787       5.17555199      -4.84119030
H       -1.02182824       6.17086858      -5.71082737
H       -0.68417342       6.57445616      -7.38900724
H        0.10989947       8.36445584      -5.97564036
H        1.07917860       7.28420224      -4.98190213
H        3.40310732       6.70956725      -7.71292756
H        3.05850179       6.23763962      -6.05062275
H        1.40442657       5.62000901      -8.54849732
H        2.43019123       4.44368860      -7.74219304
H       -1.77072240       3.95424925      -5.60218844
H       -3.38639287       2.37645214      -6.57640972
H       -2.98799015       1.39858738      -8.81541738
H        0.68277781       3.59151667      -9.14408344
H        0.45407827       1.69005757      -3.48559334
C       -0.87938054       1.87616637     -10.39563983
C       -0.67620760       1.39591515     -11.48307512
Br      -0.34769413       0.61938954     -13.24136602
C       -1.79195186      -1.79195186      -1.79195186
C       -2.08195819      -1.39239643      -3.09715755
C       -2.89413584      -2.19290376      -3.89860028
C       -3.39830161      -3.38697314      -3.39051603
F       -4.19143485      -4.13662860      -4.17014291
C       -3.10516927      -3.80805648      -2.08890800
C       -3.68623388      -5.09331443      -1.55445449
N       -4.98965127      -4.83581706      -0.94256003
C       -5.70516783      -6.03462082      -0.43295950
C       -7.08105280      -5.55566033       0.12188395
C       -8.04417986      -5.10233358      -0.97181035
O       -8.22647640      -6.11383937      -1.95835738
C       -7.00504314      -6.48035580      -2.59287247
C       -6.03300566      -7.04790050      -1.56725853
C       -4.90941941      -6.65069323       0.74311566
C       -4.57586006      -5.84910293       1.85692175
C       -3.87177445      -6.36604553       2.94776762
C       -3.47410173      -7.69893224       2.94989084
C       -3.77815163      -8.50286704       1.85618347
C       -4.48320268      -7.99006937       0.76205204
C       -2.30073668      -2.98885413      -1.28299579
H       -1.68899682      -0.45838483      -3.49228689
H       -3.13951951      -1.89416707      -4.91306806
H       -2.98305102      -5.52178243      -0.83107227
H       -3.75611089      -5.80469223      -2.38377972
H       -5.56523894      -4.35156036      -1.62837086
H       -6.96645882      -4.74191788       0.84850899
H       -7.55095119      -6.39015851       0.66181972
H       -9.02486803      -4.89433250      -0.53079514
H       -7.71186281      -4.17741544      -1.45600472
H       -7.24022493      -7.24751869      -3.33785851
H       -6.59150223      -5.62210064      -3.13316129
H       -6.52047609      -7.92796518      -1.12449163
H       -5.13169371      -7.41452438      -2.06985478
H       -4.86092933      -4.79782698       1.87304102
H       -3.63411381      -5.72488355       3.79252837
H       -2.92879308      -8.09776323       3.80054170
H       -4.69233158      -8.65775957      -0.06828677
H       -2.08126551      -3.28822974      -0.26023394
C       -3.36149541      -9.88125860       1.85032835
C       -3.01254582     -11.03566154       1.84542468
Br      -2.44832384     -12.90223345       1.83749587
C       -1.79195186       1.79195186       1.79195186
C       -2.38124884       1.25364394       2.93661940
C       -3.19324624       2.05619690       3.73619673
C       -3.39862174       3.38854413       3.38862490
F       -4.19606034       4.14165174       4.16049429
C       -2.80358172       3.94656961       2.25198241
C       -3.06420277       5.38592343       1.88387659
N       -4.25341250       5.47750366       1.03711221
C       -4.66266138       6.85439247       0.65569429
C       -5.96770527       6.73590252      -0.18877860
C       -7.17830943       6.30523442       0.63477993
O       -7.38121147       7.16485955       1.75260212
C       -6.25857625       7.19081723       2.62887792
C       -5.03414846       7.71982920       1.89418703
C       -3.57323507       7.48725856      -0.24349665
C       -3.16673271       6.82275299      -1.42144445
C       -2.19779023       7.36332207      -2.27105994
C       -1.60205935       8.58115983      -1.96007606
C       -1.97580689       9.24555698      -0.79652867
C       -2.94565032       8.70867067       0.05689902
C       -2.00119581       3.12805070       1.44334008
H       -2.22152918       0.21209533       3.20604403
H       -3.66878349       1.65300842       4.62496273
H       -2.17910772       5.78304936       1.37374864
H       -3.17581138       5.95819834       2.81057312
H       -5.01652588       5.00822920       1.52041507
H       -5.84815298       6.03981872      -1.02810398
H       -6.19046867       7.71822179      -0.62940049
H       -8.07895273       6.35726435       0.01377859
H       -7.09268823       5.26987856       0.98271617
H       -6.50581925       7.86151099       3.45827189
H       -6.09425670       6.19599973       3.05650772
H       -5.28503401       8.73433281       1.55356607
H       -4.19706459       7.82680551       2.59220277
H       -3.60554310       5.85964837      -1.67947618
H       -1.90956429       6.83002383      -3.17311913
H       -0.85077336       8.99924903      -2.62400779
H       -3.19932956       9.26459669       0.95445166
H       -1.54912156       3.53803305       0.54257457
C       -1.35600848      10.50268869      -0.46627151
C       -0.83692731      11.55553650      -0.18968114
Br       0.00238303      13.25790236       0.25754209
C        1.79195186      -1.79195186       1.79195186
C        1.26564405      -2.95930762       2.34656050
C        2.06794328      -3.75908219       3.15861440
C        3.38834095      -3.38883398       3.39861585
F        4.14093668      -4.16161535       4.19565433
C        3.93464126      -2.22897988       2.83851260
C        5.36045120      -1.83717744       3.13637415
N        5.41024700      -1.01358549       4.34419587
C        6.77032067      -0.61283051       4.78959696
C        6.60782776       0.20179687       6.10879830
C        6.16982087      -0.65528972       7.29321320
O        7.04815398      -1.75937556       7.49114361
C        7.11510549      -2.61145856       6.35170736
C        7.65353982      -1.84091608       5.15370879
C        7.40640744       0.32145245       3.73204200
C        6.72600281       1.49382986       3.33586830
C        7.26841097       2.37418191       2.39582331
C        8.50429824       2.10044792       1.81929281
C        9.18496153       0.94314233       2.18301599
C        8.64629538       0.05903585       3.12396048
C        3.11599934      -1.42066816       2.03591911
H        0.23337257      -3.24647747       2.15981850
H        1.67370036      -4.66553704       3.60751725
H        5.76481680      -1.30082554       2.27026338
H        5.94944525      -2.75416531       3.24097227
H        4.93568640      -1.52205912       5.08742465
H        5.89705156       1.02909844       5.99191460
H        7.57606087       0.65757948       6.36080860
H        6.19063392      -0.05218161       8.20718014
H        5.14386237      -1.02234974       7.17907086
H        7.79770052      -3.43199870       6.59590290
H        6.13292175      -3.05572139       6.15812101
H        8.65544707      -1.48502148       5.43246434
H        7.79197193      -2.51909260       4.30500834
H        5.74902993       1.72306859       3.75975395
H        6.72247875       3.27100009       2.11499033
H        8.92370661       2.78818824       1.09049624
H        9.21545459      -0.83210083       3.37082249
H        3.51630728      -0.50256762       1.61085427
C       10.46101537       0.65144140       1.58285169
C       11.52971045       0.40714187       1.08021409
Br      13.25770002       0.01213020       0.26749161
C       -0.00445707       0.01189536      -1.78238275
H       -0.66409135       0.67374010      -2.43557963
H        0.65740317      -0.63156657      -2.45157240
C       -0.90989263      -0.90692880      -0.91072765
C        0.90977584       0.90977584      -0.90977584
C       -0.00465871       1.77757030       0.00794375
H       -0.66225468       2.44313916      -0.64384735
H        0.64322798       2.43503045       0.67728295
C       -1.78241447       0.00034974      -0.00472694
H       -2.45427497      -0.65498947       0.64260836
H       -2.43311707       0.67328779      -0.65473579
C       -0.91132561       0.90220522       0.91563759
C       -0.01476271      -0.02253852       1.78660255
H       -0.67934791      -0.69751639       2.42135241
H        0.63392994       0.61504881       2.47327442
C        0.01484550      -1.77751727      -0.01636693
H        0.67870853      -2.42144646      -0.68295456
H       -0.62264859      -2.45592969       0.64226336
C        1.78714474       0.01002794       0.00389507
H        2.44202412       0.67113390       0.66197326
H        2.45385902      -0.65136977      -0.64189061
C        0.91606151      -0.90478549       0.90901405
