169
Properties=species:S:1:pos:R:3 pbc="F F F"
C        0.00000000       0.00000000       0.00000000
C        0.88204784       0.88204784      -0.88204784
C        2.07692136       1.39213883      -0.37273991
C        2.87695648       2.20425129      -1.17472003
C        2.47920224       2.48869203      -2.47818443
F        3.25314896       3.28517828      -3.23016705
C        1.29116270       1.97344677      -3.00781220
C        0.87067966       2.31906193      -4.41454914
N        0.07841311       3.54866324      -4.41123994
C       -0.34540258       4.04020390      -5.74823475
C       -1.12026847       5.37524401      -5.53014157
C       -0.22102277       6.52507143      -5.08456306
O        0.86485495       6.71763378      -5.98647235
C        1.68438992       5.55873227      -6.10543715
C        0.86867279       4.39575827      -6.65402156
C       -1.32354542       3.02440032      -6.38643001
C       -2.48804368       2.64074750      -5.68562535
C       -3.40675342       1.73849373      -6.22859998
C       -3.18044822       1.18807565      -7.48580361
C       -2.03187913       1.53969665      -8.18730561
C       -1.10949039       2.44285155      -7.64814678
C        0.48326970       1.17057526      -2.18902957
H        2.38562025       1.17071318       0.64637695
H        3.80488998       2.61895659      -0.79319601
H        0.30126365       1.47813762      -4.82679238
H        1.77458990       2.41551487      -5.02476599
H        0.61852384       4.26564796      -3.93128628
H       -1.93173226       5.26096456      -4.80092334
H       -1.59407744       5.66455214      -6.47910321
H       -0.80000455       7.45455182      -5.06573634
H        0.16927458       6.37429821      -4.07199810
H        2.49320330       5.79966323      -6.80302353
H        2.14859776       5.32773560      -5.14071872
H        0.49452254       4.71010498      -7.63859330
H        1.52028720       3.53378457      -6.83228902
H       -2.68062643       3.04434523      -4.69228441
H       -4.29629690       1.46654811      -5.66650570
H       -3.89789418       0.48868335      -7.90551335
H       -0.22712622       2.68161265      -8.23417941
H       -0.45582576       0.78015354      -2.57568932
C       -1.78928457       0.96626235      -9.48573581
C       -1.58611162       0.48601112     -10.57317110
Br      -1.25759816      -0.29051449     -12.33146200
C       -0.88204784      -0.88204784      -0.88204784
C       -0.29313560      -1.71049832      -1.83816618
C       -1.09868292      -2.50834453      -2.64890035
C       -2.48118330      -2.47669873      -2.48819668
F       -3.24179282      -3.23868364      -3.28801783
C       -3.08568814      -1.66199953      -1.52473401
C       -4.58758663      -1.62703752      -1.38966657
N       -5.14580813      -0.61092355      -2.28158461
C       -6.62901011      -0.51774161      -2.29628435
C       -7.01740929       0.57274760      -3.34045542
C       -6.75243744       0.14521576      -4.78139003
O       -7.39357986      -1.09022483      -5.08515638
C       -6.95757860      -2.15078485      -4.24019589
C       -7.29430508      -1.83508883      -2.78905871
C       -7.13123273      -0.04572993      -0.91032225
C       -6.63505583       1.15628543      -0.35955877
C       -7.07061369       1.62895006       0.88132334
C       -8.00944463       0.90610841       1.60990517
C       -8.50008370      -0.28881125       1.09377182
C       -8.06747621      -0.76583813      -0.14819360
C       -2.26928890      -0.84959619      -0.72398944
H        0.78695106      -1.73290761      -1.96399992
H       -0.65997634      -3.15173857      -3.40532766
H       -4.84072961      -1.42239884      -0.34306520
H       -4.97190370      -2.62692569      -1.61604139
H       -4.79878579      -0.79627945      -3.22039285
H       -6.49642518       1.51981241      -3.15354287
H       -8.09173869       0.78481950      -3.24265872
H       -7.15474441       0.89996454      -5.46550372
H       -5.68130904       0.06177770      -4.99603955
H       -7.48895461      -3.05643667      -4.55049877
H       -5.88886667      -2.33568671      -4.39249870
H       -8.38620846      -1.72018685      -2.73682551
H       -7.04318115      -2.69036910      -2.15281055
H       -5.88681430       1.73290749      -0.90209640
H       -6.67339106       2.56026265       1.27637150
H       -8.34720280       1.27775390       2.57314637
H       -8.47823931      -1.70555017      -0.50487636
H       -2.72278565      -0.19187495       0.01464350
C       -9.46612566      -1.04468872       1.84810079
C      -10.27518579      -1.67773610       2.47985130
Br     -11.58336761      -2.70132018       3.50133844
C       -0.88204784       0.88204784       0.88204784
C       -1.97034122       0.32043918       1.55101970
C       -2.78022286       1.12725116       2.34845378
C       -2.48766073       2.48233516       2.47608282
F       -3.28723708       3.24689468       3.23436253
C       -1.39205837       3.05732346       1.82303985
C       -1.11329308       4.53360377       1.95739387
N       -1.83811964       5.27475855       0.92543811
C       -1.70334307       6.75358988       0.98610312
C       -2.58716661       7.34944446      -0.15149396
C       -4.08327205       7.19675542       0.10858425
O       -4.45220537       7.74684761       1.36990809
C       -3.76698945       7.12740497       2.45416491
C       -2.26566217       7.33954855       2.31324190
C       -0.23470270       7.15108947       0.70149274
C        0.38895465       6.71568486      -0.48840103
C        1.70774200       7.06233445      -0.79425216
C        2.44229995       7.84802581       0.08770519
C        1.85314701       8.27501257       1.27325757
C        0.53311099       7.93098617       1.58363275
C       -0.59157466       2.24217670       1.00912317
H       -2.19894660      -0.73798096       1.44899083
H       -3.63740664       0.71100902       2.86862691
H       -0.03192288       4.69462218       1.87964858
H       -1.40527301       4.84353576       2.96606200
H       -2.81959521       5.01139030       0.98447258
H       -2.35262075       6.90332990      -1.12579501
H       -2.36713085       8.42293704      -0.24048998
H       -4.64422043       7.73731225      -0.66124909
H       -4.40532052       6.15069955       0.05955082
H       -4.11841814       7.60054473       3.37692718
H       -4.03763656       6.06770292       2.51171260
H       -2.09919401       8.42603350       2.31799332
H       -1.74833171       6.94419443       3.19383465
H       -0.15866881       6.08557598      -1.18824158
H        2.15837721       6.71562008      -1.72048596
H        3.46647577       8.11721787      -0.15443957
H        0.12086256       8.28632484       2.52320356
H        0.25087377       2.67626282       0.47462805
C        2.61232221       9.08185692       2.19317888
C        3.24813144       9.75758906       2.96361298
Br       4.27618118      10.85019079       4.20933975
C        0.88204784      -0.88204784       0.88204784
C        0.88702655      -0.69048512       2.26428843
C        1.69871399      -1.48935364       3.06786017
C        2.48751271      -2.47596523       2.48260076
F        3.27470798      -3.22441001       3.26937630
C        2.48292024      -2.68956957       1.09993186
C        3.36728962      -3.74786344       0.48913766
N        4.67957949      -3.18256110       0.17617570
C        5.67459139      -4.14067731      -0.37223264
C        7.00742390      -3.35975198      -0.58205876
C        7.68852237      -2.97242671       0.72766263
O        7.89920626      -4.10804460       1.56171021
C        6.68311201      -4.77059647       1.89485086
C        6.00390529      -5.28272763       0.63181970
C        5.19878745      -4.64472981      -1.75623236
C        4.89985994      -3.71278627      -2.77431704
C        4.48145919      -4.12216019      -4.04327910
C        4.34218845      -5.47698590      -4.32574331
C        4.61603220      -6.41207139      -3.33298047
C        5.03562579      -6.00717716      -2.06129502
C        1.67598791      -1.87053041       0.29635621
H        0.27173818       0.08189353       2.72011181
H        1.72415385      -1.34882826       4.14406046
H        2.87637072      -4.13914510      -0.40932217
H        3.43782060      -4.58062287       1.19642729
H        5.04219790      -2.75000435       1.02325584
H        6.85863801      -2.45357464      -1.18205700
H        7.70146428      -3.99685535      -1.14874172
H        8.67024343      -2.53683554       0.51320463
H        7.11993980      -2.21591758       1.27971351
H        6.93746275      -5.61624455       2.54218276
H        6.03931800      -4.10175485       2.47597923
H        6.70833465      -5.97927937       0.15560680
H        5.11896764      -5.87131040       0.89608276
H        4.98472936      -2.64535551      -2.57408165
H        4.26347655      -3.38073473      -4.80745437
H        4.01875671      -5.79147951      -5.31393370
H        5.23306135      -6.77611066      -1.32050617
H        1.67710015      -2.00612049      -0.78320354
C        4.46550987      -7.81547811      -3.61827439
C        4.33944742      -8.99083123      -3.85720805
Br       4.13561509     -10.89127782      -4.24354356
