161
Properties=species:S:1:pos:R:3 pbc="F F F"
C        0.00000000       0.00000000       0.00000000
C        0.85290566      -0.03348741      -8.57283909
O        1.51117370       0.90545492      -7.71904675
C        1.81457844       0.47352728      -6.46359172
O        1.54685401      -0.63200904      -6.01059528
C        2.50672246       1.56729842      -5.69132554
N        3.70478664       1.19151301      -4.89645326
C        3.45514584       0.42608531      -3.65291111
C        2.53811756       1.09007565      -2.64619864
C        2.53449241       2.47987481      -2.45018679
C        1.68164912       3.06466182      -1.51104628
C        0.85159761       2.26520537      -0.72649294
C        0.88192890       0.88192890      -0.88192890
C        1.71618846       0.29314901      -1.83264822
S        5.09722349       0.75690318      -5.76968492
O        5.12803730       1.55708149      -6.97570608
O        6.21421594       0.75673801      -4.85115118
C        4.83445535      -0.93650654      -6.25958695
C        5.19691549      -1.96926542      -5.38648651
C        4.98647312      -3.29744566      -5.76189784
C        4.43439787      -3.58433170      -7.01060036
C        4.12168897      -2.55801477      -7.90251851
C        4.34191427      -1.22857712      -7.53574883
H       -0.22505760       0.13889696      -8.52585454
H        1.08387658      -1.07264185      -8.32273419
H        1.19223091       0.15242928      -9.59656386
H        1.74513348       2.02183382      -5.04976656
H        2.79837177       2.37126828      -6.37811361
H        4.40247139       0.25714753      -3.12692817
H        3.04669886      -0.55564878      -3.91586296
H        3.19045560       3.11854291      -3.04039416
H        1.66986355       4.14504329      -1.38726124
H        0.19626446       2.72731160       0.00687210
H        1.73015552      -0.78999790      -1.93943671
H        5.64167632      -1.75102201      -4.41793102
H        5.25528031      -4.09881594      -5.07791249
H        3.70527829      -2.78359284      -8.88093069
H        4.11103571      -0.43351375      -8.24125570
C        4.19304838      -4.95335631      -7.38626251
C        3.99091819      -6.09991441      -7.70087956
Br       3.66409076      -7.95380190      -8.20958872
C       -7.17525439      -4.29286271       2.07585976
O       -6.63946448      -4.24739969       0.75118879
C       -5.28818742      -4.11209783       0.64858781
O       -4.51353725      -4.00226978       1.59036678
C       -4.87756816      -4.08635814      -0.80142012
N       -3.69815966      -4.90093946      -1.19365379
C       -2.37411044      -4.38472870      -0.77530313
C       -2.03305981      -2.98810247      -1.25322958
C       -2.43886489      -2.51492279      -2.51076634
C       -2.10564893      -1.22401542      -2.92769287
C       -1.32766845      -0.40421209      -2.11141539
C       -0.88192890      -0.88192890      -0.88192890
C       -1.22872776      -2.16263956      -0.45061838
S       -3.88533267      -6.59008638      -1.14839255
O       -5.25248853      -6.89145758      -1.51687874
O       -2.77677365      -7.17816166      -1.86716981
C       -3.68319676      -7.03894282       0.56460382
C       -2.39825860      -7.28106491       1.06518694
C       -2.23328480      -7.62569586       2.40805534
C       -3.35111398      -7.74394008       3.23438753
C       -4.63576796      -7.55450766       2.72408291
C       -4.80601092      -7.22157403       1.37849896
H       -7.50753406      -3.29120028       2.35904045
H       -6.46426122      -4.68042970       2.81072200
H       -8.04414070      -4.95809590       2.06101255
H       -4.72279282      -3.03401068      -1.05993036
H       -5.72340278      -4.39798500      -1.42636588
H       -1.58338036      -5.03533967      -1.16782706
H       -2.31035848      -4.41433584       0.31778129
H       -3.03070404      -3.14853956      -3.17014907
H       -2.44838709      -0.86023204      -3.89354894
H       -1.06673882       0.59614831      -2.44611345
H       -0.86950918      -2.52205974       0.51197460
H       -1.52481497      -7.20488095       0.42111059
H       -1.23408505      -7.80010032       2.79980850
H       -5.50678419      -7.66138350       3.36555154
H       -5.81063407      -7.09069581       0.98255223
C       -3.17812081      -8.07332775       4.62549397
C       -3.03323903      -8.34918992       5.79054561
Br      -2.79897744      -8.79523572       7.67433558
C       -8.12174710       2.56557444      -1.29506421
O       -7.37800075       2.87046351      -0.11278890
C       -6.02837108       2.98114300      -0.25781664
O       -5.41213008       2.81617476      -1.30286459
C       -5.38898301       3.30930881       1.06705460
N       -4.34529837       4.36710846       1.08034609
C       -3.03219857       4.00245185       0.49949185
C       -2.34899096       2.80250051       1.12290038
C       -2.44208479       2.52655618       2.49591303
C       -1.79727625       1.41548734       3.04459363
C       -1.01732213       0.58953149       2.23644230
C       -0.88192890       0.88192890       0.88192890
C       -1.54021197       1.97808232       0.32369141
S       -4.86658711       5.96029216       0.79693232
O       -6.18717058       6.10039548       1.37325880
O       -3.79327511       6.85191462       1.17691539
C       -5.04013879       6.08960183      -0.97220487
C       -3.92778590       6.43534655      -1.74899587
C       -4.05611488       6.53078354      -3.13597310
C       -5.29522259       6.29917998      -3.73373604
C       -6.41609500       6.00632854      -2.95623083
C       -6.29472035       5.92187088      -1.56750525
H       -8.29185528       1.48713316      -1.33929455
H       -7.63120352       2.91175832      -2.20899292
H       -9.09031936       3.06926404      -1.21835934
H       -4.98961784       2.36839342       1.45872260
H       -6.16568316       3.59523125       1.78683925
H       -2.33184697       4.83817596       0.61652415
H       -3.15537800       3.82604612      -0.57451108
H       -3.03110023       3.17209189       3.14620055
H       -1.89872820       1.19811822       4.10532164
H       -0.51312031      -0.26873459       2.67231825
H       -1.42143553       2.19457539      -0.73641660
H       -2.96303509       6.63166851      -1.28611827
H       -3.18879386       6.78574050      -3.74015750
H       -7.38412230       5.84058517      -3.42209133
H       -7.17517674       5.70892559      -0.96532467
C       -5.42069313       6.37168722      -5.16642577
C       -5.52577471       6.43241203      -6.36630341
Br      -5.69568274       6.53059892      -8.30640408
C       -1.28933151      -2.55587130       8.12571754
O       -0.17661657      -2.97849801       7.33379393
C        0.26166377      -2.10187228       6.38816139
O       -0.23436372      -1.00763396       6.15217001
C        1.43619525      -2.68450265       5.64464853
N        2.60034273      -1.79436750       5.39804268
C        2.42140882      -0.74942196       4.36331149
C        2.04068879      -1.24905508       2.98464798
C        2.53695170      -2.45709428       2.47050803
C        2.17291668      -2.89088467       1.19355587
C        1.34190227      -2.10362679       0.39776686
C        0.88192890      -0.88192890       0.88192890
C        1.22488861      -0.45271912       2.16437797
S        3.52256566      -1.34689478       6.75435115
O        3.52170325      -2.46394598       7.67517563
O        4.76456495      -0.77947162       6.27806855
C        2.61326217      -0.02085297       7.52342062
C        2.81811384       1.29492724       7.09094998
C        2.10307074       2.33680360       7.68465817
C        1.20495603       2.06003281       8.71574331
C        1.03898672       0.75596261       9.18316859
C        1.76131091      -0.28752839       8.60024668
H       -2.20773385      -2.95705046       7.69037728
H       -1.35639808      -1.46865930       8.22170770
H       -1.16428650      -2.97774053       9.12777002
H        1.04175181      -3.07415672       4.70082533
H        1.79977773      -3.57333163       6.17464430
H        3.35903848      -0.19620589       4.23130272
H        1.66509218      -0.03530155       4.70651931
H        3.20307228      -3.07583101       3.07048938
H        2.54362909      -3.84143354       0.81710545
H        1.06913974      -2.44479970      -0.59723547
H        0.85935181       0.50641659       2.52665911
H        3.52847229       1.51749049       6.29760353
H        2.25220652       3.35691371       7.33908405
H        0.34980004       0.54370485       9.99652096
H        1.63964032      -1.29977104       8.97936630
C        0.44828895       3.13175911       9.30942475
C       -0.18541973       4.02932990       9.80663296
Br      -1.21007306       5.48062594      10.61057658
