182
Properties=species:S:1:pos:R:3 pbc="F F F"
C        1.76280968       0.87641661      -9.48274311
O        2.42107773       1.81535895      -8.62895077
C        2.72448246       1.38343130      -7.37349574
O        2.45675803       0.27789498      -6.92049931
C        3.41662649       2.47720245      -6.60122957
N        4.61469066       2.10141703      -5.80635728
C        4.36504987       1.33598934      -4.56281514
C        3.44802159       1.99997968      -3.55610266
C        3.44439643       3.38977883      -3.36009082
C        2.59155314       3.97456585      -2.42095031
C        1.76150164       3.17510940      -1.63639696
C        1.79183293       1.79183293      -1.79183293
C        2.62609249       1.20305304      -2.74255225
S        6.00712752       1.66680720      -6.67958895
O        6.03794132       2.46698551      -7.88561010
O        7.12411996       1.66664203      -5.76105520
C        5.74435937      -0.02660252      -7.16949097
C        6.10681951      -1.05936139      -6.29639053
C        5.89637715      -2.38754163      -6.67180187
C        5.34430189      -2.67442767      -7.92050438
C        5.03159299      -1.64811074      -8.81242254
C        5.25181829      -0.31867309      -8.44565286
H        0.68484642       1.04880098      -9.43575856
H        1.99378060      -0.16273782      -9.23263822
H        2.10213493       1.06233330     -10.50646789
H        2.65503750       2.93173785      -5.95967058
H        3.70827580       3.28117230      -7.28801764
H        5.31237541       1.16705155      -4.03683219
H        3.95660288       0.35425525      -4.82576698
H        4.10035962       4.02844693      -3.95029819
H        2.57976757       5.05494731      -2.29716526
H        1.10616849       3.63721563      -0.90303193
H        2.64005954       0.11990612      -2.84934073
H        6.55158034      -0.84111799      -5.32783505
H        6.16518433      -3.18891192      -5.98781652
H        4.61518232      -1.87368882      -9.79083472
H        5.02093973       0.47639027      -9.15115973
C        5.10295241      -4.04345228      -8.29616653
C        4.90082221      -5.19001039      -8.61078358
Br       4.57399478      -7.04389788      -9.11949275
C       -5.84532699       1.33001480      -7.60665722
O       -5.67108518      -0.02113818      -7.17316408
C       -5.43100535      -0.20513010      -5.84527406
O       -5.32921983       0.68736412      -5.01329660
C       -5.27700008      -1.67393402      -5.54412439
N       -5.97493648      -2.20367600      -4.34385250
C       -5.39320349      -1.83969716      -3.03095369
C       -3.94621271      -2.23661773      -2.82127348
C       -3.41956583      -3.42585596      -3.34884429
C       -2.08248145      -3.76925298      -3.13533487
C       -1.26548680      -2.95011787      -2.35740332
C       -1.79183293      -1.79183293      -1.79183293
C       -3.12073805      -1.43245792      -2.01850180
S       -7.67239670      -2.26903751      -4.41208946
O       -8.04688662      -2.56481473      -5.77883558
O       -8.12794247      -3.10237944      -3.32149528
C       -8.22061440      -0.61100166      -4.05563177
C       -8.40187705      -0.21781213      -2.72415947
C       -8.82396151       1.08205651      -2.43873238
C       -9.07920148       1.97157005      -3.48274717
C       -8.94968555       1.56484795      -4.81106718
C       -8.53943983       0.26178257      -5.10114079
H       -4.89209416       1.70735435      -7.98466615
H       -6.22905065       1.98469322      -6.81932357
H       -6.56956910       1.32576222      -8.42712923
H       -4.20105180      -1.86497188      -5.48042226
H       -5.60628417      -2.26104444      -6.41013712
H       -5.95629301      -2.33138318      -2.22858296
H       -5.49224603      -0.75853682      -2.88584227
H       -4.04838806      -4.08794757      -3.94276912
H       -1.67989770      -4.68051709      -3.57146536
H       -0.22835654      -3.22796221      -2.19009730
H       -3.51755759      -0.52524184      -1.56650697
H       -8.21867600      -0.91244610      -1.90717530
H       -8.95127809       1.39129667      -1.40410752
H       -9.16307181       2.25448545      -5.62374186
H       -8.45554350      -0.05443429      -6.13851194
C       -9.48880976       3.32000316      -3.18686006
C       -9.83185670       4.44931590      -2.93905461
Br     -10.38653458       6.27531908      -2.53837415
C       -2.02201015       0.65083725       9.44912201
O       -2.62637077       1.63386764       8.60514904
C       -2.90424585       1.24830107       7.32886259
O       -2.65549105       0.14894011       6.85072116
C       -3.54037530       2.38465583       6.57002736
N       -4.72438406       2.06870298       5.72937794
C       -4.45984274       1.33287591       4.47113569
C       -3.49374631       1.99809430       3.51226331
C       -3.44345117       3.39229928       3.35851563
C       -2.54584651       3.97834215       2.46288063
C       -1.71627233       3.17752447       1.67921119
C       -1.79183293       1.79183293       1.79183293
C       -2.67133720       1.20089981       2.69946076
S       -6.15470935       1.65093718       6.54787714
O       -6.19846526       2.41597376       7.77609792
O       -7.24296859       1.71144850       5.59740010
C       -5.95662795      -0.06327410       6.99389398
C       -6.32267421      -1.05856669       6.07974114
C       -6.16270425      -2.40293448       6.42086761
C       -5.65725231      -2.74285835       7.67598464
C       -5.34167053      -1.75305084       8.60728510
C       -5.51163893      -0.40738462       8.27454374
H       -0.93852855       0.79188256       9.43899486
H       -2.27569120      -0.37308494       9.16107474
H       -2.38650852       0.81682186      10.46760574
H       -2.74675286       2.83459351       5.96509956
H       -3.82893891       3.17658515       7.27194168
H       -5.39539276       1.20812838       3.91273803
H       -4.08848790       0.33196321       4.71617401
H       -4.09793509       4.03291082       3.94825884
H       -2.49865286       5.06103940       2.37218788
H       -1.02581619       3.64092808       0.97967178
H       -2.72027804       0.11600384       2.77302452
H       -6.73138251      -0.79868096       5.10559585
H       -6.43410869      -3.17541803       5.70539827
H       -4.96180008      -2.01969734       9.59022548
H       -5.27896455       0.35931232       9.01021286
C       -5.46760785      -4.12897531       8.01703412
C       -5.30878062      -5.28984827       8.30266305
Br      -5.05197042      -7.16688165       8.76450089
C        5.85165204       1.33125763       7.60157500
O        5.67614718      -0.02007804       7.16916222
C        5.43499690      -0.20483955       5.84157306
O        5.33325384       0.68713753       5.00903602
C        5.27973902      -1.67374679       5.54157269
N        5.97645019      -2.20483216       4.34118264
C        5.39404532      -1.84137062       3.02843840
C        3.94662589      -2.23741467       2.82006337
C        3.41951129      -3.42590601       3.34884878
C        2.08203337      -3.76850707       3.13652885
C        1.26506791      -2.94934431       2.35859578
C        1.79183293      -1.79183293       1.79183293
C        3.12115222      -1.43323878       2.01730676
S        7.67391163      -2.27134742       4.40826461
O        8.04915993      -2.56642250       5.77495450
O        8.12809512      -3.10578332       3.31793875
C        8.22304995      -0.61395289       4.05024498
C        8.40364786      -0.22183416       2.71836664
C        8.82644985       1.07753294       2.43172047
C        9.08305851       1.96760409       3.47492419
C        8.95419549       1.56191392       4.80362321
C        8.54323326       0.25934499       5.09490978
H        4.89895442       1.70953955       7.97999110
H        6.23528124       1.98510682       6.81350658
H        6.57647182       1.32707279       8.42153709
H        4.20361097      -1.86406768       5.47876728
H        5.60922075      -2.26047726       6.40776773
H        5.95621840      -2.33402297       2.22601779
H        5.49375014      -0.76038365       2.88249132
H        4.04828527      -4.08802229       3.94279719
H        1.67911381      -4.67917698       3.57358935
H        0.22762306      -3.22657245       2.19222053
H        3.51829348      -0.52662403       1.56438889
H        8.21937678      -0.91691619       1.90200443
H        8.95325251       1.38595061       1.39678703
H        9.16864518       2.25197507       5.61565810
H        8.45984783      -0.05607818       6.13256372
C        9.49341129       3.31553707       3.17779245
C        9.83708174       4.44443095       2.92894461
Br      10.39276780       6.26975686       2.52657871
C       -0.00445707       0.01189536      -1.78238275
H       -0.66409135       0.67374010      -2.43557963
H        0.65740317      -0.63156657      -2.45157240
C       -0.90989263      -0.90692880      -0.91072765
C        0.90977584       0.90977584      -0.90977584
C       -0.00465871       1.77757030       0.00794375
H       -0.66225468       2.44313916      -0.64384735
H        0.64322798       2.43503045       0.67728295
C       -1.78241447       0.00034974      -0.00472694
H       -2.45427497      -0.65498947       0.64260836
H       -2.43311707       0.67328779      -0.65473579
C       -0.91132561       0.90220522       0.91563759
C       -0.01476271      -0.02253852       1.78660255
H       -0.67934791      -0.69751639       2.42135241
H        0.63392994       0.61504881       2.47327442
C        0.01484550      -1.77751727      -0.01636693
H        0.67870853      -2.42144646      -0.68295456
H       -0.62264859      -2.45592969       0.64226336
C        1.78714474       0.01002794       0.00389507
H        2.44202412       0.67113390       0.66197326
H        2.45385902      -0.65136977      -0.64189061
C        0.91606151      -0.90478549       0.90901405
