174
Properties=species:S:1:pos:R:3 pbc="F F F"
C        1.76280968       0.87641661      -9.48274311
O        2.42107773       1.81535895      -8.62895077
C        2.72448246       1.38343130      -7.37349574
O        2.45675803       0.27789498      -6.92049931
C        3.41662649       2.47720245      -6.60122957
N        4.61469066       2.10141703      -5.80635728
C        4.36504987       1.33598934      -4.56281514
C        3.44802159       1.99997968      -3.55610266
C        3.44439643       3.38977883      -3.36009082
C        2.59155314       3.97456585      -2.42095031
C        1.76150164       3.17510940      -1.63639696
C        1.79183293       1.79183293      -1.79183293
C        2.62609249       1.20305304      -2.74255225
S        6.00712752       1.66680720      -6.67958895
O        6.03794132       2.46698551      -7.88561010
O        7.12411996       1.66664203      -5.76105520
C        5.74435937      -0.02660252      -7.16949097
C        6.10681951      -1.05936139      -6.29639053
C        5.89637715      -2.38754163      -6.67180187
C        5.34430189      -2.67442767      -7.92050438
Br       5.02747198      -4.47160555      -8.41365235
C        5.03159299      -1.64811074      -8.81242254
C        5.25181829      -0.31867309      -8.44565286
H        0.68484642       1.04880098      -9.43575856
H        1.99378060      -0.16273782      -9.23263822
H        2.10213493       1.06233330     -10.50646789
H        2.65503750       2.93173785      -5.95967058
H        3.70827580       3.28117230      -7.28801764
H        5.31237541       1.16705155      -4.03683219
H        3.95660288       0.35425525      -4.82576698
H        4.10035962       4.02844693      -3.95029819
H        2.57976757       5.05494731      -2.29716526
H        1.10616849       3.63721563      -0.90303193
H        2.64005954       0.11990612      -2.84934073
H        6.55158034      -0.84111799      -5.32783505
H        6.16518433      -3.18891192      -5.98781652
H        4.61518232      -1.87368882      -9.79083472
H        5.02093973       0.47639027      -9.15115973
C       -9.27813900      -2.77662403      -0.06720638
O       -8.47717445      -3.22494196      -1.16327103
C       -7.15412103      -3.42081683      -0.90647165
O       -6.60370099      -3.22007686       0.16862553
C       -6.44847935      -3.89583031      -2.15074884
N       -5.49169226      -5.02378650      -2.00698622
C       -4.19945766      -4.71057726      -1.35381942
C       -3.38222602      -3.61481372      -2.00706419
C       -3.35466610      -3.44015947      -3.39944051
C       -2.58788260      -2.42422562      -3.97496107
C       -1.80639016      -1.59634179      -3.17027604
C       -1.79183293      -1.79183293      -1.79183293
C       -2.57154643      -2.79122508      -1.20892626
S       -6.15394601      -6.54857908      -1.65099858
O       -7.43654025      -6.63760478      -2.31639190
O       -5.12844475      -7.54184684      -1.88152560
C       -6.46377651      -6.52753681       0.10406549
C       -5.44032545      -6.89112010       0.98759690
C       -5.67507788      -6.86927282       2.36371332
C       -6.93227258      -6.50351784       2.84541182
Br      -7.23869297      -6.44052374       4.70969793
C       -7.96824439      -6.19197396       1.96431357
C       -7.74113269      -6.22437444       0.58670908
H       -9.36687202      -1.68856678      -0.11396717
H       -8.88290746      -3.08529548       0.90452194
H      -10.27481156      -3.21378112      -0.18234344
H       -5.95024526      -3.01927307      -2.57692760
H       -7.19122679      -4.18009207      -2.90614687
H       -3.55940263      -5.60105430      -1.35580223
H       -4.38550822      -4.44304387      -0.30807303
H       -3.94365668      -4.09012820      -4.04531986
H       -2.59563274      -2.28300837      -5.05323904
H       -1.20713507      -0.81293688      -3.62634409
H       -2.54645644      -2.93286516      -0.12998480
H       -4.46291471      -7.19160440       0.61622171
H       -4.87583395      -7.13833659       3.05008160
H       -8.95149826      -5.92142995       2.34059999
H       -8.55683926      -5.99598684      -0.09566363
C       -7.73074202       5.68790590      -1.29667852
O       -7.27083451       5.54512936       0.04942357
C       -5.93591302       5.33143905       0.21405744
O       -5.11789331       5.22835961      -0.69110061
C       -5.60662261       5.20867377       1.67976212
N       -4.40985495       5.93660645       2.17600359
C       -3.09339859       5.37142175       1.79903400
C       -2.85131223       3.93553305       2.21725865
C       -3.34875676       3.42090534       3.42460398
C       -3.10571466       2.09400972       3.78734491
C       -2.32780830       1.27629878       2.96890092
C       -1.79183293       1.79183293       1.79183293
C       -2.04816337       3.11004082       1.41349359
S       -4.50693952       7.63351552       2.21306863
O       -5.87474806       7.98938002       2.52640885
O       -3.41025836       8.12259340       3.01896543
C       -4.18907921       8.15844908       0.53971954
C       -2.86804890       8.35583198       0.11996777
C       -2.61274702       8.75976820      -1.19187783
C       -3.67640235       8.98107392      -2.06709767
Br      -3.32834721       9.49407711      -3.85290555
C       -4.99496096       8.83571580      -1.63477197
C       -5.25506167       8.44359048      -0.31985410
H       -8.09833967       4.72173058      -1.65066429
H       -6.96180361       6.07361471      -1.97173732
H       -8.56368971       6.39775032      -1.29050390
H       -5.52060382       4.13753905       1.88830306
H       -6.46799242       5.53319289       2.27628042
H       -2.29268737       5.95696531       2.26660647
H       -2.96886063       5.45384398       0.71392050
H       -3.94211446       4.05092175       4.08606853
H       -3.51876788       1.70008186       4.71303040
H       -2.13739587       0.24730397       3.26171619
H       -1.61907849       3.49855333       0.49167457
H       -2.03601259       8.19915522       0.80312959
H       -1.58606136       8.89954963      -1.52152206
H       -5.82313586       9.02273166      -2.31353931
H       -6.28513908       8.34729158       0.01605907
C        1.14083256      -1.47784872       9.50328813
O        1.92919609      -2.29839548       8.63779587
C        2.28754810      -1.75011615       7.44374526
O        1.96837192      -0.63493170       7.05184869
C        3.11571691      -2.72849970       6.65084189
N        4.33506042      -2.20749407       5.97991049
C        4.11682520      -1.36814416       4.77888498
C        3.32838710      -2.01639743       3.65931939
C        3.44622068      -3.38356907       3.36447632
C        2.71064559      -3.95367950       2.32274420
C        1.87969603      -3.15756811       1.53574385
C        1.79183293      -1.79183293       1.79183293
C        2.50778914      -1.21997890       2.84392973
S        5.62355223      -1.74294496       6.98702647
O        5.62955467      -2.62964180       8.13134047
O        6.80016463      -1.59172469       6.15992787
C        5.19627961      -0.11566137       7.57530685
C        5.53952046       1.00479284       6.80912104
C        5.20071074       2.28147942       7.26140607
C        4.54001722       2.43070251       8.48106389
Br       4.05073343       4.15704937       9.07583471
C        4.24440355       1.31876733       9.27026856
C        4.59241929       0.04086403       8.82724279
H        0.08556255      -1.72292810       9.36091532
H        1.30815622      -0.40859867       9.34692610
H        1.41923572      -1.71750134      10.53419906
H        2.43948824      -3.18553471       5.92142299
H        3.41862170      -3.56014664       7.29869740
H        5.08353103      -1.09158703       4.34114110
H        3.61594556      -0.44148052       5.07919903
H        4.10556197      -4.01725278       3.95629000
H        2.79127814      -5.01932294       2.12127906
H        1.31629837      -3.60742009       0.72269758
H        2.43033083      -0.15011575       3.02885982
H        6.06810816       0.89448994       5.86467918
H        5.45514020       3.15050721       6.65945594
H        3.74273467       1.43763505      10.22722860
H        4.37367684      -0.82083554       9.45397735
C       -0.00445707       0.01189536      -1.78238275
H       -0.66409135       0.67374010      -2.43557963
H        0.65740317      -0.63156657      -2.45157240
C       -0.90989263      -0.90692880      -0.91072765
C        0.90977584       0.90977584      -0.90977584
C       -0.00465871       1.77757030       0.00794375
H       -0.66225468       2.44313916      -0.64384735
H        0.64322798       2.43503045       0.67728295
C       -1.78241447       0.00034974      -0.00472694
H       -2.45427497      -0.65498947       0.64260836
H       -2.43311707       0.67328779      -0.65473579
C       -0.91132561       0.90220522       0.91563759
C       -0.01476271      -0.02253852       1.78660255
H       -0.67934791      -0.69751639       2.42135241
H        0.63392994       0.61504881       2.47327442
C        0.01484550      -1.77751727      -0.01636693
H        0.67870853      -2.42144646      -0.68295456
H       -0.62264859      -2.45592969       0.64226336
C        1.78714474       0.01002794       0.00389507
H        2.44202412       0.67113390       0.66197326
H        2.45385902      -0.65136977      -0.64189061
C        0.91606151      -0.90478549       0.90901405
