130
Properties=species:S:1:pos:R:3 pbc="F F F"
C        1.79225681       1.79225681      -1.79225681
C        1.69795043       3.18016136      -1.69052765
C        2.51250824       3.98846827      -2.48216947
C        3.41239700       3.40537244      -3.37566189
C        3.49668991       2.01002116      -3.48870081
C        2.68819345       1.19888094      -2.68284551
C        4.48770595       1.43523480      -4.44294031
O        5.46273041       2.10940162      -4.75065042
N        4.15517809       0.20379700      -4.97462030
C        4.97477376      -0.57817063      -5.82421937
C        4.33317342      -1.50599502      -6.65314083
F        2.99532969      -1.61396368      -6.60764861
C        5.03878301      -2.31318887      -7.54221270
C        6.42473314      -2.20954215      -7.59401516
C        7.09645381      -1.32555489      -6.75461004
C        6.37144842      -0.52356749      -5.87138057
F        7.07465436       0.22364900      -5.01052666
H        1.00322405       3.64050640      -0.99219951
H        2.45388659       5.07129004      -2.40002521
H        4.05334795       4.04231707      -3.98395943
H        2.77137543       0.11674020      -2.71854143
H        3.17706412      -0.06530031      -4.94938517
H        4.49744935      -3.00603877      -8.17862397
H        8.18019642      -1.25450859      -6.75632261
C        7.17106518      -3.03601423      -8.50699512
C        7.79611826      -3.72818459      -9.27161584
Br       8.80677622      -4.84736552     -10.50794286
C       -1.79225681      -1.79225681      -1.79225681
C       -1.72620924      -1.66293342      -3.17949678
C       -2.51771357      -2.47708656      -3.98834586
C       -3.37551361      -3.41167787      -3.40623985
C       -3.45292064      -3.53144072      -2.01105051
C       -2.64700021      -2.72306998      -1.19984970
C       -4.36949150      -4.55837464      -1.43801493
O       -4.67033761      -5.52440804      -2.12803681
N       -4.87904517      -4.26777685      -0.18677337
C       -5.69007701      -5.12573835       0.59499286
C       -6.51127652      -4.52626153       1.55721882
F       -6.49465629      -3.19061783       1.69625951
C       -7.36383078      -5.27184452       2.36786846
C       -7.38552293      -6.65582086       2.23213764
C       -6.55208257      -7.28617896       1.31275258
C       -5.70569797      -6.52147416       0.50791062
F       -4.84678879      -7.18599814      -0.27604309
H       -1.05568615      -0.94097119      -3.63927262
H       -2.46305760      -2.39106987      -5.07107436
H       -3.98373319      -4.05193702      -4.04395424
H       -2.65467324      -2.83249905      -0.11948476
H       -4.87033694      -3.29593410       0.10512206
H       -7.99592830      -4.76242092       3.08831466
H       -6.53003166      -8.36767942       1.21570065
C       -8.26055056      -7.44313184       3.06163633
C       -8.99338619      -8.10250479       3.75634148
Br     -10.17831943      -9.16865508       4.87962095
C       -1.79225681       1.79225681       1.79225681
C       -2.16400386       1.34469733       3.05993824
C       -2.95553738       2.15342411       3.87418450
C       -3.37644403       3.40234043       3.41464687
C       -3.01507078       3.84608149       2.13425961
C       -2.20815468       3.03905350       1.32271171
C       -3.47280357       5.19603852       1.69703897
O       -3.73944939       6.02939396       2.55393911
N       -3.64658596       5.35201603       0.33499340
C       -3.98277390       6.56032300      -0.32227439
C       -4.59936380       6.45561691      -1.57466148
F       -4.83987935       5.23891889      -2.08978362
C       -4.99071225       7.57788313      -2.30078854
C       -4.74322054       8.84176485      -1.77577924
C       -4.09589410       8.98114551      -0.55153066
C       -3.71283784       7.84417610       0.16224757
F       -2.99474066       8.03798602       1.27610334
H       -1.83447114       0.37538089       3.42607795
H       -3.23948023       1.81708327       4.86863834
H       -3.98615069       4.03382249       4.05965127
H       -1.87598908       3.38295395       0.34771402
H       -3.76912801       4.51005006      -0.21802908
H       -5.48186181       7.44815050      -3.25997776
H       -3.86357613       9.95942773      -0.14099343
C       -5.14071899      10.01359330      -2.51226622
C       -5.47362394      10.99499963      -3.12907407
Br      -6.01190310      12.58185065      -4.12640018
C        1.79225681      -1.79225681       1.79225681
C        1.49690200      -3.14920784       1.92252959
C        2.30871836      -3.96073991       2.71368771
C        3.40759834      -3.41047789       3.37535510
C        3.69592883      -2.04314920       3.25633385
C        2.88820203      -1.23170979       2.45000808
C        4.89235275      -1.50707909       3.96644922
O        5.80357132      -2.27772441       4.24148673
N        4.81622589      -0.17847564       4.33889386
C        5.85649753       0.57301055       4.93733553
C        5.48351022       1.69297534       5.68978435
F        4.18195333       2.00174190       5.80880319
C        6.42182931       2.49229640       6.33827393
C        7.77202536       2.18108496       6.21826575
C        8.17875560       1.09788712       5.44464048
C        7.22307484       0.30748198       4.80366865
F        7.67570120      -0.64971103       3.98341780
H        0.64584211      -3.58513677       1.40495108
H        2.09248510      -5.02212584       2.81059090
H        4.04398206      -4.05191245       3.98372995
H        3.12110902      -0.18109575       2.30445229
H        3.89154141       0.23441008       4.40401766
H        6.08514725       3.34070763       6.92559494
H        9.22982087       0.85908845       5.31127802
C        8.75652841       2.99612316       6.88164082
C        9.58104970       3.67871765       7.43721745
Br      10.91423091       4.78241521       8.33553787
C       -0.00445707       0.01189536      -1.78238275
H       -0.66409135       0.67374010      -2.43557963
H        0.65740317      -0.63156657      -2.45157240
C       -0.90989263      -0.90692880      -0.91072765
C        0.90977584       0.90977584      -0.90977584
C       -0.00465871       1.77757030       0.00794375
H       -0.66225468       2.44313916      -0.64384735
H        0.64322798       2.43503045       0.67728295
C       -1.78241447       0.00034974      -0.00472694
H       -2.45427497      -0.65498947       0.64260836
H       -2.43311707       0.67328779      -0.65473579
C       -0.91132561       0.90220522       0.91563759
C       -0.01476271      -0.02253852       1.78660255
H       -0.67934791      -0.69751639       2.42135241
H        0.63392994       0.61504881       2.47327442
C        0.01484550      -1.77751727      -0.01636693
H        0.67870853      -2.42144646      -0.68295456
H       -0.62264859      -2.45592969       0.64226336
C        1.78714474       0.01002794       0.00389507
H        2.44202412       0.67113390       0.66197326
H        2.45385902      -0.65136977      -0.64189061
C        0.91606151      -0.90478549       0.90901405
