122
Properties=species:S:1:pos:R:3 pbc="F F F"
C        1.79225681       1.79225681      -1.79225681
C        1.69795043       3.18016136      -1.69052765
C        2.51250824       3.98846827      -2.48216947
C        3.41239700       3.40537244      -3.37566189
C        3.49668991       2.01002116      -3.48870081
C        2.68819345       1.19888094      -2.68284551
C        4.48770595       1.43523480      -4.44294031
O        5.46273041       2.10940162      -4.75065042
N        4.15517809       0.20379700      -4.97462030
C        4.97477376      -0.57817063      -5.82421937
C        4.33317342      -1.50599502      -6.65314083
F        2.99532969      -1.61396368      -6.60764861
C        5.03878301      -2.31318887      -7.54221270
C        6.42473314      -2.20954215      -7.59401516
Br       7.40386755      -3.29381458      -8.79177977
C        7.09645381      -1.32555489      -6.75461004
C        6.37144842      -0.52356749      -5.87138057
F        7.07465436       0.22364900      -5.01052666
H        1.00322405       3.64050640      -0.99219951
H        2.45388659       5.07129004      -2.40002521
H        4.05334795       4.04231707      -3.98395943
H        2.77137543       0.11674020      -2.71854143
H        3.17706412      -0.06530031      -4.94938517
H        4.49744935      -3.00603877      -8.17862397
H        8.18019642      -1.25450859      -6.75632261
C       -1.79225681      -1.79225681      -1.79225681
C       -1.77518936      -1.61747329      -3.17597679
C       -2.56654513      -2.43106014      -3.98554072
C       -3.37537442      -3.41067870      -3.40737821
C       -3.40383223      -3.57652774      -2.01505191
C       -2.59781779      -2.76832489      -1.20377722
C       -4.26877343      -4.65001173      -1.44709590
O       -4.56136811      -5.60317965      -2.15823470
N       -4.74644935      -4.41538232      -0.17176371
C       -5.50450148      -5.32319070       0.60686967
C       -6.31252937      -4.78102039       1.61323054
F       -6.33326864      -3.45054908       1.79480311
C       -7.11464800      -5.57881179       2.42565295
C       -7.09735445      -6.95783444       2.24598274
Br      -8.17661589      -8.06089660       3.33567975
C       -6.27474532      -7.53180085       1.28103721
C       -5.47920127      -6.71528848       0.47522824
F       -4.62569918      -7.32680487      -0.35632598
H       -1.14283045      -0.86015656      -3.63294295
H       -2.54965352      -2.30944664      -5.06610168
H       -3.98354420      -4.04998143      -4.04609882
H       -2.56711714      -2.91173362      -0.12780630
H       -4.75875334      -3.45338709       0.15099145
H       -7.73876368      -5.11291424       3.18164337
H       -6.22197729      -8.60845134       1.14841821
C       -1.79225681       1.79225681       1.79225681
C       -2.21942239       1.31709308       3.03212396
C       -3.01115493       2.12508046       3.84691060
C       -3.37687479       3.40109992       3.41545662
C       -2.95977662       3.87319316       2.16244210
C       -2.15271213       3.06631241       1.35089536
C       -3.35980686       5.25064721       1.75542699
O       -3.62781633       6.06466228       2.63030385
N       -3.48376772       5.45542820       0.39439947
C       -3.75966009       6.69438206      -0.23321964
C       -4.33784466       6.64979568      -1.50732111
F       -4.59985717       5.45862034      -2.06946290
C       -4.66931393       7.80679553      -2.20830262
C       -4.39915814       9.04456240      -1.63451440
Br      -4.83957084      10.62811440      -2.56585250
C       -3.78824452       9.12367258      -0.38640815
C       -3.46512069       7.95264919       0.30149163
F       -2.77815948       8.08731661       1.44335393
H       -1.93303559       0.32634633       3.37654805
H       -3.33811111       1.76681763       4.82027309
H       -3.98704781       4.03143805       4.06113860
H       -1.77798169       3.42992686       0.39874851
H       -3.61478317       4.63592744      -0.18956162
H       -5.13260315       7.72377999      -3.18634859
H       -3.53856301      10.08027187       0.06317555
C        1.79225681      -1.79225681       1.79225681
C        1.53124287      -3.15977506       1.87762151
C        2.34360883      -3.97073438       2.66880277
C        3.40854833      -3.40958146       3.37530154
C        3.66195175      -2.03219495       3.30126518
C        2.85408416      -1.22079718       2.49503855
C        4.82344830      -1.48393470       4.05849806
O        5.74793610      -2.23704075       4.33780560
N        4.70047867      -0.16871056       4.46440615
C        5.70297897       0.59368777       5.11153131
C        5.27890302       1.68187895       5.88329515
F        3.96654549       1.95198930       5.97445842
C        6.17684982       2.48793693       6.57889394
C        7.53790459       2.21672355       6.48802511
Br       8.77539254       3.29591193       7.42235213
C        7.99524991       1.16676970       5.69702874
C        7.07950429       0.36894393       5.00870115
F        7.58047484      -0.55256775       4.17578743
H        0.70687841      -3.60398915       1.32506241
H        2.15436015      -5.03984822       2.73099346
H        4.04582798      -4.05023541       3.98356107
H        3.06160578      -0.16064782       2.38440346
H        3.76327793       0.21710606       4.51497711
H        5.80103966       3.31033753       7.17933243
H        9.05574995       0.96021287       5.58647335
C       -0.00445707       0.01189536      -1.78238275
H       -0.66409135       0.67374010      -2.43557963
H        0.65740317      -0.63156657      -2.45157240
C       -0.90989263      -0.90692880      -0.91072765
C        0.90977584       0.90977584      -0.90977584
C       -0.00465871       1.77757030       0.00794375
H       -0.66225468       2.44313916      -0.64384735
H        0.64322798       2.43503045       0.67728295
C       -1.78241447       0.00034974      -0.00472694
H       -2.45427497      -0.65498947       0.64260836
H       -2.43311707       0.67328779      -0.65473579
C       -0.91132561       0.90220522       0.91563759
C       -0.01476271      -0.02253852       1.78660255
H       -0.67934791      -0.69751639       2.42135241
H        0.63392994       0.61504881       2.47327442
C        0.01484550      -1.77751727      -0.01636693
H        0.67870853      -2.42144646      -0.68295456
H       -0.62264859      -2.45592969       0.64226336
C        1.78714474       0.01002794       0.00389507
H        2.44202412       0.67113390       0.66197326
H        2.45385902      -0.65136977      -0.64189061
C        0.91606151      -0.90478549       0.90901405
