150
Properties=species:S:1:pos:R:3 pbc="F F F"
C        1.79150407       1.79150407      -1.79150407
C        1.20759608       2.75650921      -2.60825288
C        2.01482721       3.56415336      -3.41357464
C        3.40598066       3.40827582      -3.40185587
Cl       4.32211158       4.40183836      -4.47752263
C        3.98831182       2.44032204      -2.57278453
C        3.17539231       1.62695468      -1.76681596
C        5.45798997       2.27982172      -2.47481766
O        6.19627222       3.25145294      -2.35929951
N        5.92808087       0.98631103      -2.53103091
C        7.34413137       0.69665583      -2.42696293
C        8.01216216       0.93860636      -3.73495172
N        8.08336071       2.19918512      -4.28845349
H        7.67006265       3.03024920      -3.87659285
C        8.76015262       2.10468745      -5.47246600
C        9.11321914       3.03030196      -6.45196448
C        9.83351067       2.50112450      -7.52059250
C       10.14213061       1.14312582      -7.54436880
N        9.79244004       0.23738961      -6.60032164
C        9.09232095       0.75816324      -5.56807277
N        8.61773398       0.05017815      -4.49860162
H        0.12628850       2.89056107      -2.62540613
H        1.55061754       4.31128755      -4.05215088
H        3.62229481       0.89374106      -1.09977191
H        5.32107300       0.23314696      -2.82900209
H        7.44454288      -0.35236222      -2.13211221
H        7.79005192       1.32248267      -1.64652081
H        8.84642087       4.07792122      -6.38246189
H       10.70965218       0.71977590      -8.36976018
C       10.25580369       3.36066995      -8.59597626
C       10.60947409       4.08053926      -9.49661016
Br      11.18132922       5.24450706     -10.95285900
C       -1.79150407      -1.79150407      -1.79150407
C       -1.25250764      -2.39494018      -2.92491035
C       -2.05917429      -3.20294300      -3.73043791
C       -3.40448155      -3.40897607      -3.40265473
Cl      -4.34546170      -4.36661852      -4.48939236
C       -3.93946117      -2.80480641      -2.25715082
C       -3.12838615      -1.99007719      -1.45069961
C       -5.33826094      -3.04348468      -1.83088374
O       -5.81442768      -4.17291467      -1.81968232
N       -6.05541494      -1.92624288      -1.46376498
C       -7.42764456      -2.03030730      -1.00979828
C       -8.34221335      -2.16733510      -2.17617179
N       -8.29809814      -3.26853303      -3.00436815
H       -7.63709983      -4.03315361      -2.90665126
C       -9.25672723      -3.11392697      -3.96665186
C       -9.65383999      -3.88422274      -5.05742285
C      -10.71117300      -3.35203297      -5.79202171
C      -11.28010555      -2.13942415      -5.41009552
N      -10.89117852      -1.38173512      -4.35723765
C       -9.86380706      -1.90380952      -3.65094037
N       -9.28553073      -1.32682312      -2.55415990
H       -0.20629642      -2.24539918      -3.19056009
H       -1.63195363      -3.66583562      -4.61626671
H       -3.52925617      -1.54166978      -0.54488184
H       -5.70606411      -1.00044195      -1.67671599
H       -7.65738484      -1.12119448      -0.44571354
H       -7.52802581      -2.89104438      -0.33998521
H       -9.17483311      -4.82262969      -5.30934118
H      -12.11027307      -1.71734800      -5.97156720
C      -11.21121512      -4.05813829      -6.94309649
C      -11.63000039      -4.64950150      -7.90712162
Br     -12.30714077      -5.60568579      -9.46586872
C       -1.79150407       1.79150407       1.79150407
C       -3.14931742       1.91500279       1.50803795
C       -3.95600842       2.72051739       2.31602940
C       -3.40598462       3.40185446       3.40827327
Cl      -4.46066633       4.42805462       4.31275163
C       -2.04046995       3.26821982       3.69272862
C       -1.23039781       2.46123466       2.87753048
C       -1.42322305       3.91534492       4.87406139
O       -1.96058854       3.87155980       5.97487632
N       -0.22970593       4.56551383       4.65020303
C        0.48217567       5.22117852       5.72874729
C       -0.12683164       6.55024037       6.00864822
N       -1.41413073       6.66955946       6.48730914
H       -2.03998120       5.88669305       6.65023045
C       -1.68229312       7.99946440       6.65554855
C       -2.80347329       8.70472432       7.08728797
C       -2.64244248      10.08800964       7.12477555
C       -1.42818696      10.65549606       6.74594221
N       -0.33901877       9.97546357       6.31566895
C       -0.50388402       8.63439054       6.28028240
N        0.44115958       7.73288587       5.87478747
H       -3.59132386       1.38828934       0.66264250
H       -5.01376584       2.81570782       2.08458231
H       -0.17622240       2.33011838       3.10946700
H        0.07990185       4.75730468       3.70581922
H        1.52418838       5.33420593       5.41427531
H        0.45442089       4.59003355       6.62344274
H       -3.72505061       8.21093763       7.37081573
H       -1.28827573      11.73346120       6.77745134
C       -3.73229214      10.92505657       7.55510118
C       -4.64504123      11.62608338       7.91549890
Br      -6.12087931      12.75958444       8.49823152
C        1.79150407      -1.79150407       1.79150407
C        3.06650674      -2.14704097       1.35881045
C        3.87353727      -2.95241250       2.16660544
C        3.40684404      -3.40164166       3.40762665
Cl       4.44320667      -4.44747788       4.31078802
C        2.12571900      -3.03491001       3.84078937
C        1.31450563      -2.22851814       3.02613918
C        1.61043814      -3.42942874       5.17276247
O        2.30399449      -3.32500747       6.17802270
N        0.32415226      -3.92141434       5.19985620
C       -0.30007196      -4.32355628       6.44426582
C        0.16931473      -5.68083039       6.83557512
N        1.48699335      -5.92506962       7.15893635
H        2.22432851      -5.22772686       7.12484932
C        1.60556962      -7.24758028       7.48415616
C        2.67892334      -8.04836924       7.86819300
C        2.35054519      -9.37718133       8.12750115
C        1.03178853      -9.80472392       7.99311277
N       -0.01315245      -9.03317444       7.61012931
C        0.31392757      -7.74606853       7.35856085
N       -0.55783964      -6.77514125       6.94921214
H        3.44362563      -1.80234593       0.39628414
H        4.86536154      -3.22973405       1.81896037
H        0.33083468      -1.91641180       3.36856130
H       -0.14192536      -4.18441951       4.34072791
H       -1.38266494      -4.32221926       6.28473855
H       -0.06191026      -3.59466093       7.22630473
H        3.68725061      -7.66249691       7.95705646
H        0.76207542     -10.83784051       8.19927233
C        3.37619952     -10.30286590       8.53338448
C        4.23518502     -11.07812673       8.87331176
Br       5.62409192     -12.33165792       9.42294543
C       -0.00445707       0.01189536      -1.78238275
H       -0.66409135       0.67374010      -2.43557963
H        0.65740317      -0.63156657      -2.45157240
C       -0.90989263      -0.90692880      -0.91072765
C        0.90977584       0.90977584      -0.90977584
C       -0.00465871       1.77757030       0.00794375
H       -0.66225468       2.44313916      -0.64384735
H        0.64322798       2.43503045       0.67728295
C       -1.78241447       0.00034974      -0.00472694
H       -2.45427497      -0.65498947       0.64260836
H       -2.43311707       0.67328779      -0.65473579
C       -0.91132561       0.90220522       0.91563759
C       -0.01476271      -0.02253852       1.78660255
H       -0.67934791      -0.69751639       2.42135241
H        0.63392994       0.61504881       2.47327442
C        0.01484550      -1.77751727      -0.01636693
H        0.67870853      -2.42144646      -0.68295456
H       -0.62264859      -2.45592969       0.64226336
C        1.78714474       0.01002794       0.00389507
H        2.44202412       0.67113390       0.66197326
H        2.45385902      -0.65136977      -0.64189061
C        0.91606151      -0.90478549       0.90901405
