149
Properties=species:S:1:pos:R:3 pbc="F F F"
C        0.00000000       0.00000000       0.00000000
C        0.88312191       0.88312191      -0.88312191
C        2.19332393       0.48935743      -1.14961355
C        2.99662101       1.28670888      -1.95965500
C        2.48284092       2.46789135      -2.49921224
C        1.16705515       2.87070806      -2.22878525
C        0.36686745       2.06854745      -1.41395141
N        0.74477349       4.08250848      -2.81364179
C       -0.42854413       4.77078209      -2.59205436
O       -1.33331763       4.41515923      -1.84642899
C       -0.62241718       6.07496781      -3.29457917
H       -1.61001944       6.49734147      -3.13575880
C       -0.09437813       6.27382061      -4.58869667
C       -0.14798389       5.93035535      -5.85790327
C        0.52591157       7.11246962      -3.62853573
H        0.22882915       8.15419573      -3.67154631
C        1.96020136       6.85364171      -3.32421543
O        2.50193118       5.84048454      -3.74914380
N        2.54514633       7.83620766      -2.55366559
C        3.87800258       7.86622377      -2.08468173
C        4.79608323       6.82941630      -2.27654102
C        6.09940176       6.92677467      -1.77824852
C        6.50048716       8.06493607      -1.08488603
C        5.59160363       9.10082189      -0.89132431
Br       6.13024183      10.65321345       0.04486144
C        4.28678491       9.00690202      -1.38233953
H        2.59310048      -0.43143640      -0.73368767
H        4.02109485       0.99282347      -2.17197445
H        3.12914418       3.08025377      -3.12546209
H       -0.65915774       2.33890899      -1.18884210
H        1.43140806       4.52601504      -3.42307462
H       -0.84005972       5.17085298      -6.20497467
H        0.51125198       6.38792575      -6.58849227
H        1.96895440       8.62961579      -2.30307321
H        4.53261320       5.91873601      -2.80476004
H        6.79817229       6.10804146      -1.93367232
H        7.51538527       8.13211299      -0.70215932
H        3.59832224       9.83087980      -1.21792896
C       -0.88312191      -0.88312191      -0.88312191
C       -0.28622075      -1.80845302      -1.73762115
C       -1.08749986      -2.61919161      -2.53629342
C       -2.47750514      -2.50105558      -2.47138380
C       -3.08193724      -1.56725843      -1.61735279
C       -2.27354274      -0.75525976      -0.82056381
N       -4.49132572      -1.51933506      -1.63026298
C       -5.31736671      -0.60703704      -1.00988857
O       -4.94809950       0.32358759      -0.30375868
C       -6.79068252      -0.73360464      -1.22284264
H       -7.36558602      -0.03499154      -0.62250329
C       -7.38228505      -2.00576312      -1.38009098
C       -7.67403474      -3.15566112      -0.81057886
C       -7.48173413      -1.22553495      -2.55964784
H       -8.46881107      -0.82491202      -2.76084810
C       -6.70788808      -1.68405069      -3.74611972
O       -5.88238240      -2.58131255      -3.62786457
N       -7.02403057      -1.00636299      -4.90462603
C       -6.45061412      -1.19593169      -6.18236227
C       -5.39109620      -2.07098421      -6.43996013
C       -4.87018359      -2.20290171      -7.73133966
C       -5.40610451      -1.46295812      -8.78124663
C       -6.46139565      -0.59084067      -8.53151352
Br      -7.19907524       0.41410713      -9.95362574
C       -6.98240618      -0.45109380      -7.24252647
H        0.79505214      -1.90417949      -1.78622441
H       -0.63437827      -3.34197017      -3.20954434
H       -3.08614987      -3.14031517      -3.10839500
H       -2.70151209      -0.02784466      -0.13923660
H       -4.93786372      -2.21171311      -2.23092089
H       -7.38881382      -3.36217795       0.21522384
H       -8.19455829      -3.93417052      -1.35894119
H       -7.75157091      -0.30537532      -4.84469716
H       -4.93364363      -2.66621763      -5.65624799
H       -4.04292370      -2.88551726      -7.91144510
H       -4.99552763      -1.57268468      -9.78144529
H       -7.80707822       0.23605349      -7.07610626
C       -0.88312191       0.88312191       0.88312191
C       -0.59045347       2.24073868       1.00110276
C       -1.39719119       3.04843799       1.79735572
C       -2.49098179       2.49367049       2.46529223
C       -2.78547057       1.12707817       2.35399973
C       -1.97173940       0.32146380       1.55616311
N       -3.90574265       0.66186908       3.07331202
C       -4.31959359      -0.64015469       3.25485342
O       -3.77725334      -1.63249995       2.78351720
C       -5.51646920      -0.88435693       4.11501753
H       -5.82487459      -1.92541111       4.12361736
C       -6.57653146       0.04759538       4.14401232
C       -7.55521761       0.61408789       3.47096923
C       -5.91127838      -0.03745553       5.39309406
H       -6.45612931      -0.56757588       6.16601775
C       -5.14272540       1.15776964       5.83756346
O       -4.94858875       2.08362582       5.05934496
N       -4.71091105       1.07936035       7.14474819
C       -3.94513329       2.03898371       7.84479108
C       -3.43412644       3.20366852       7.26424559
C       -2.67852995       4.10694526       8.01894974
C       -2.42837701       3.85690152       9.36503074
C       -2.93497328       2.69977747       9.94899908
Br      -2.60439979       2.35529189      11.77890217
C       -3.68605948       1.79127252       9.19869446
H        0.25793086       2.67447579       0.47880682
H       -1.17749208       4.10770571       1.90069498
H       -3.10599803       3.14121842       3.08764359
H       -2.17114919      -0.73783826       1.43528241
H       -4.42605210       1.38452474       3.56992088
H       -7.73944828       0.36462945       2.43169020
H       -8.19424943       1.35843043       3.93499015
H       -4.97660724       0.25566782       7.66936834
H       -3.59522488       3.44287022       6.21801415
H       -2.28569042       5.00546290       7.54873274
H       -1.84107431       4.56484410       9.94373919
H       -4.07035968       0.89659799       9.68017332
C        0.88312191      -0.88312191       0.88312191
C        1.96008380      -0.31271316       1.55949795
C        2.76043297      -1.11217707       2.37037486
C        2.47554928      -2.47304876       2.50134647
C        1.39651035      -3.05210472       1.81793340
C        0.59881367      -2.24620901       1.00434363
N        1.19662223      -4.43494244       2.00935909
C        0.31685778      -5.26666758       1.35076696
O       -0.47633455      -4.92141207       0.48319307
C        0.33239409      -6.72058438       1.69415134
H       -0.45504817      -7.27996795       1.19816106
C        0.61653643      -7.13956410       3.01203863
C        0.21497331      -7.16024779       4.26505363
C        1.61893525      -7.55046769       2.09751398
H        1.60372646      -8.60488288       1.84596185
C        2.96561767      -6.93179910       2.24064173
O        3.12282213      -5.97699311       2.99174428
N        3.93354815      -7.53545838       1.46601305
C        5.29432900      -7.16667212       1.36790695
C        5.84800828      -6.05100497       2.00302730
C        7.20465820      -5.74407343       1.85569333
C        8.02427834      -6.55247601       1.07355491
C        7.47937716      -7.66493725       0.43943542
Br       8.58739982      -8.77178785      -0.62059382
C        6.12371166      -7.97350664       0.57880816
H        2.18050294       0.74677385       1.46162267
H        3.60540131      -0.68040406       2.90008740
H        3.11705547      -3.08208601       3.13571855
H       -0.25116981      -2.65276363       0.46699953
H        1.83524111      -4.87208782       2.67316879
H       -0.70833352      -6.67762794       4.56647351
H        0.80656333      -7.64811342       5.03299325
H        3.65029789      -8.33598438       0.91536112
H        5.25182292      -5.38539177       2.61889456
H        7.61636837      -4.86948188       2.35403581
H        9.07734867      -6.30671693       0.96559199
H        5.72494353      -8.84856330       0.07362416
