157
Properties=species:S:1:pos:R:3 pbc="F F F"
C        0.00000000       0.00000000       0.00000000
C        0.88312191       0.88312191      -0.88312191
C        2.19332393       0.48935743      -1.14961355
C        2.99662101       1.28670888      -1.95965500
C        2.48284092       2.46789135      -2.49921224
C        1.16705515       2.87070806      -2.22878525
C        0.36686745       2.06854745      -1.41395141
N        0.74477349       4.08250848      -2.81364179
C       -0.42854413       4.77078209      -2.59205436
O       -1.33331763       4.41515923      -1.84642899
C       -0.62241718       6.07496781      -3.29457917
H       -1.61001944       6.49734147      -3.13575880
C       -0.09437813       6.27382061      -4.58869667
C       -0.14798389       5.93035535      -5.85790327
C        0.52591157       7.11246962      -3.62853573
H        0.22882915       8.15419573      -3.67154631
C        1.96020136       6.85364171      -3.32421543
O        2.50193118       5.84048454      -3.74914380
N        2.54514633       7.83620766      -2.55366559
C        3.87800258       7.86622377      -2.08468173
C        4.79608323       6.82941630      -2.27654102
C        6.09940176       6.92677467      -1.77824852
C        6.50048716       8.06493607      -1.08488603
C        5.59160363       9.10082189      -0.89132431
C        4.28678491       9.00690202      -1.38233953
H        2.59310048      -0.43143640      -0.73368767
H        4.02109485       0.99282347      -2.17197445
H        3.12914418       3.08025377      -3.12546209
H       -0.65915774       2.33890899      -1.18884210
H        1.43140806       4.52601504      -3.42307462
H       -0.84005972       5.17085298      -6.20497467
H        0.51125198       6.38792575      -6.58849227
H        1.96895440       8.62961579      -2.30307321
H        4.53261320       5.91873601      -2.80476004
H        6.79817229       6.10804146      -1.93367232
H        7.51538527       8.13211299      -0.70215932
H        3.59832224       9.83087980      -1.21792896
C        6.00174244      10.28286956      -0.17847827
C        6.34523370      11.27283447       0.41853029
Br       6.90063001      12.87352402       1.38384263
C       -0.88312191      -0.88312191      -0.88312191
C       -0.28787117      -1.71133390      -1.83308984
C       -1.08838497      -2.52219585      -2.63240407
C       -2.47562438      -2.50133965      -2.47298048
C       -3.07893506      -1.66517020      -1.52244321
C       -2.27154009      -0.85246103      -0.72536518
N       -4.48627804      -1.71066023      -1.44398549
C       -5.32451243      -0.89607479      -0.71370510
O       -4.96787005       0.01113758       0.02846187
C       -6.79795044      -1.10708253      -0.84209683
H       -7.37407585      -0.48728110      -0.16172390
C       -7.31802806      -2.40354704      -1.04656406
C       -7.49867066      -3.60369809      -0.53790598
C       -7.54452940      -1.55947343      -2.16291409
H       -8.56594164      -1.21379671      -2.27483284
C       -6.82440660      -1.89026591      -3.42338599
O       -5.93837161      -2.73609400      -3.41709391
N       -7.25887851      -1.16407496      -4.51206611
C       -6.76124899      -1.23471146      -5.83294762
C       -5.66864348      -2.01931352      -6.21408355
C       -5.22781246      -2.03518979      -7.54142270
C       -5.87779001      -1.26845482      -8.50406443
C       -6.96652760      -0.48600186      -8.13122037
C       -7.40810523      -0.46218596      -6.80573526
H        0.79161564      -1.73148933      -1.95547806
H       -0.63688445      -3.16962703      -3.37938130
H       -3.08424734      -3.13869751      -3.11191518
H       -2.69774483      -0.19923977       0.02839126
H       -4.92772707      -2.39237284      -2.06039781
H       -7.13330166      -3.85445754       0.45199126
H       -8.00492169      -4.37938645      -1.10336186
H       -8.02320055      -0.51830407      -4.36013878
H       -5.12361088      -2.63053614      -5.50196223
H       -4.37335414      -2.64849964      -7.81803228
H       -5.52879543      -1.28779858      -9.53306358
H       -8.26118282       0.15666491      -6.54261309
C       -7.64594928       0.30622776      -9.12336875
C       -8.21496494       0.96972007      -9.95429302
Br      -9.13501513       2.04253101     -11.29782728
C       -0.88312191       0.88312191       0.88312191
C       -0.48937171       1.14959023       2.19333297
C       -1.28672307       1.95963160       2.99663022
C       -2.46789113       2.49921204       2.48284135
C       -2.87069353       2.22880856       1.16704637
C       -2.06853312       1.41397469       0.36685849
N       -4.08248017       2.81368746       0.74475613
C       -4.77074075       2.59212551      -0.42857394
O       -4.41511572       1.84650766      -1.33335278
C       -6.07491421       3.29467082      -0.62245523
H       -6.49727653       3.13586975      -1.61006544
C       -6.27375652       4.58878382      -0.09440119
C       -5.93027316       5.85798645      -0.14798488
C       -7.11242716       3.62862586       0.52586390
H       -8.15414861       3.67165476       0.22876781
C       -6.85362304       3.32428240       1.96015306
O       -5.84046748       3.74918948       2.50190256
N       -7.83620755       2.55373800       2.54507404
C       -7.86624831       2.08473630       3.87792346
C       -6.82945078       2.27656884       4.79602093
C       -6.92683380       1.77825984       6.09933131
C       -8.06501018       1.08490744       6.50039164
C       -9.10088621       0.89137233       5.59149128
C       -9.00694177       1.38240412       4.28668057
H        0.43141095       0.73364628       2.59311643
H       -0.99284878       2.17193301       4.02111098
H       -3.08025382       3.12546142       3.12914480
H       -2.33888370       1.18888313      -0.65917348
H       -4.52598778       3.42311696       1.43139297
H       -5.17075657       6.20505692      -0.84004557
H       -6.38784259       6.58857269       0.51125473
H       -8.62961122       2.30316435       1.96886783
H       -5.91875965       2.80477901       4.53257059
H       -6.10810803       1.93366287       6.79811516
H       -8.13220623       0.70216776       7.51528360
H       -9.83091237       1.21801425       3.59820437
C      -10.28294924       0.17853686       6.00160417
C      -11.27292703      -0.41846285       6.34507371
Br     -12.87363739      -1.38376089       6.90043490
C        0.88312191      -0.88312191       0.88312191
C        1.89410562      -0.29610619       1.64208310
C        2.69388753      -1.09612076       2.45297661
C        2.47414200      -2.47439895       2.50140356
C        1.46188538      -3.06977580       1.73488729
C        0.66454838      -2.26307344       0.92174448
N        1.32506721      -4.46890464       1.84695191
C        0.52350226      -5.30772569       1.10306438
O       -0.24267583      -4.95743779       0.21350863
C        0.59773157      -6.77500096       1.37439726
H       -0.13398486      -7.34608390       0.81098180
C        0.83772400      -7.24747786       2.68293729
C        0.37624855      -7.35325371       3.91077247
C        1.90420618      -7.56006178       1.80264895
H        1.95641169      -8.59940112       1.49875838
C        3.20809670      -6.88378318       2.04617862
O        3.27797906      -5.96278695       2.85079352
N        4.24331467      -7.39761767       1.29408725
C        5.58622481      -6.95731210       1.28537117
C        6.04891953      -5.85020263       2.00291839
C        7.39336823      -5.46923218       1.94182454
C        8.29169570      -6.19423129       1.16438228
C        7.83753985      -7.29776072       0.44844925
C        6.49455244      -7.67990136       0.50157266
H        2.06361343       0.77665135       1.60838968
H        3.48795897      -0.65122731       3.04670649
H        3.11431011      -3.08314854       3.13740139
H       -0.13546102      -2.68266445       0.32138992
H        1.95194471      -4.90788301       2.52067000
H       -0.58473122      -6.93328822       4.18721093
H        0.95370596      -7.85057319       4.68339085
H        4.02975334      -8.18141347       0.69047658
H        5.38911774      -5.24790237       2.61908914
H        7.73378891      -4.60247847       2.50361867
H        9.33458701      -5.89135397       1.12371661
H        6.16740325      -8.54612195      -0.06639421
C        8.76290331      -8.05457080      -0.35438384
C        9.53789521      -8.68839924      -1.02675656
Br      10.79099155      -9.71324622      -2.11392638
