178
Properties=species:S:1:pos:R:3 pbc="F F F"
C        1.79302593       1.79302593      -1.79302593
C        3.10322796       1.39926145      -2.05951757
C        3.90652504       2.19661290      -2.86955902
C        3.39274494       3.37779538      -3.40911627
C        2.07695917       3.78061209      -3.13868927
C        1.27677148       2.97845147      -2.32385543
N        1.65467752       4.99241250      -3.72354581
C        0.48135990       5.68068611      -3.50195838
O       -0.42341361       5.32506325      -2.75633302
C        0.28748685       6.98487184      -4.20448319
H       -0.70011541       7.40724550      -4.04566283
C        0.81552590       7.18372463      -5.49860070
C        0.76192014       6.84025937      -6.76780729
C        1.43581559       8.02237364      -4.53843975
H        1.13873318       9.06409975      -4.58145033
C        2.87010538       7.76354573      -4.23411946
O        3.41183521       6.75038857      -4.65904782
N        3.45505035       8.74611169      -3.46356962
C        4.78790661       8.77612779      -2.99458575
C        5.70598726       7.73932033      -3.18644504
C        7.00930579       7.83667870      -2.68815254
C        7.41039119       8.97484010      -1.99479005
C        6.50150765      10.01072592      -1.80122833
C        5.19668893       9.91680604      -2.29224355
H        3.50300451       0.47846763      -1.64359169
H        4.93099887       1.90272750      -3.08187848
H        4.03904820       3.99015779      -4.03536612
H        0.25074628       3.24881301      -2.09874613
H        2.34131208       5.43591906      -4.33297864
H        0.06984430       6.08075701      -7.11487869
H        1.42115600       7.29782978      -7.49839629
H        2.87885842       9.53951981      -3.21297723
H        5.44251722       6.82864003      -3.71466407
H        7.70807631       7.01794548      -2.84357634
H        8.42528930       9.04201702      -1.61206335
H        4.50822626      10.74078382      -2.12783298
C        6.91164647      11.19277358      -1.08838229
C        7.25513772      12.18273850      -0.49137374
Br       7.81053403      13.78342804       0.47393861
C       -1.79302593      -1.79302593      -1.79302593
C       -1.19534246      -2.69285460      -2.67380993
C       -1.99641260      -3.50363530      -3.47264906
C       -3.38689537      -3.41105808      -3.38170314
C       -3.99226180      -2.50289008      -2.50110866
C       -3.18413323      -1.69069227      -1.70425289
N       -5.40227673      -2.47950190      -2.48885720
C       -6.23291606      -1.59268580      -1.83840253
O       -5.86742003      -0.66804319      -1.12251944
C       -7.70734043      -1.74140665      -2.02809479
H       -8.28358338      -1.06345604      -1.40575349
C       -8.27957566      -3.02085291      -2.19742266
C       -8.54139916      -4.18535037      -1.64323727
C       -8.41316445      -2.22225601      -3.36120853
H       -9.41038662      -1.83561238      -3.53828425
C       -7.65247189      -2.64657671      -4.56872197
O       -6.80965964      -3.53111429      -4.48049766
N       -8.00054973      -1.95465671      -5.70952522
C       -7.44646848      -2.11205602      -7.00009565
C       -6.37669660      -2.96379800      -7.29125802
C       -5.87633746      -3.06424995      -8.59354962
C       -6.44329467      -2.31582506      -9.62090161
C       -7.50892848      -1.46680737      -9.33772606
C       -8.00956260      -1.35848886      -8.03768708
H       -0.11359889      -2.76873053      -2.74273441
H       -1.54277778      -4.20662410      -4.16620296
H       -3.99550991      -4.04981898      -4.01924322
H       -3.61256163      -0.98276609      -1.00297770
H       -5.84727896      -3.16914641      -3.09378442
H       -8.23469246      -4.40449557      -0.62629197
H       -9.05796038      -4.96330130      -2.19612040
H       -8.73891176      -1.26768819      -5.62475552
H       -5.89535403      -3.56434147      -6.52612583
H       -5.04071291      -3.72902780      -8.79985742
H       -6.04850867      -2.40105366     -10.62980733
H       -8.84291852      -0.68889909      -7.84502545
C       -8.10266729      -0.69301392     -10.39712113
C       -8.59992355      -0.04496191     -11.28436450
Br      -9.40394487       1.00288339     -12.71896199
C       -1.79302593       1.79302593       1.79302593
C       -1.19890957       2.75495818       2.60813923
C       -2.00049954       3.56562306       3.40657436
C       -3.38817378       3.41078562       3.38069719
C       -3.98958503       2.44021485       2.56646066
C       -3.18080413       1.62851917       1.76975509
N       -5.39648366       2.35707056       2.61708161
C       -6.21401590       1.40844197       2.04154652
O       -5.83871285       0.46945857       1.34981125
C       -7.68426902       1.50324229       2.28933057
H       -8.25585760       0.77501891       1.72191640
C       -8.30446819       2.76370372       2.42967933
C       -8.64019422       3.89072970       1.83906287
C       -8.35385742       2.01203068       3.63074088
H       -9.32483022       1.59195846       3.86749458
C       -7.56243725       2.52052043       4.78481290
O       -6.76370068       3.43497553       4.62259539
N       -7.83156582       1.86530400       5.96786184
C       -7.23117278       2.10232606       7.22512130
C       -6.18851163       3.01023131       7.43300968
C       -5.63875016       3.18866761       8.70671925
C       -6.12864274       2.46287351       9.78850509
C       -7.16695733       1.55821187       9.58829271
C       -7.71655343       1.37201082       8.31717428
H       -0.11959688       2.87918291       2.62628404
H       -1.54939814       4.31680983       4.04939687
H       -3.99689532       4.05075999       4.01691681
H       -3.60685357       0.87312476       1.11832709
H       -5.84549848       3.05328006       3.21143125
H       -8.38641091       4.07774046       0.80132863
H       -9.16669778       4.66979140       2.38089290
H       -8.54198461       1.14485250       5.94451835
H       -5.76656609       3.59632423       6.62293101
H       -4.82516676       3.89638999       8.84804139
H       -5.69592219       2.60880462      10.77464285
H       -8.52708774       0.66017951       8.18957581
C       -7.68112220       0.80737641      10.70430373
C       -8.11173529       0.17855171      11.63896296
Br      -8.80800022      -0.83820464      13.15022788
C        1.79302593      -1.79302593       1.79302593
C        2.85457833      -1.21793215       2.48949650
C        3.65478857      -2.01752580       3.30038259
C        3.38510879      -3.38327076       3.41127704
C        2.32167169      -3.96694908       2.70763977
C        1.52406736      -3.16085893       1.89415209
N        2.13650997      -5.35436736       2.87975851
C        1.27512634      -6.18855912       2.20031893
O        0.48835327      -5.84232081       1.32730859
C        1.30438380      -7.64629675       2.52616132
H        0.52997818      -8.20906679       2.01374795
C        1.57761424      -8.07798300       3.84225399
C        1.16112733      -8.11897342       5.08988605
C        2.59604372      -8.46537540       2.93520987
H        2.59687765      -9.51672073       2.67068488
C        3.93316723      -7.83218382       3.10241951
O        4.06945873      -6.88485600       3.86695687
N        4.91780525      -8.41444454       2.33248187
C        6.27503522      -8.02795653       2.25562840
C        6.80717228      -6.91354200       2.91103834
C        8.16163213      -6.58834362       2.78416128
C        9.00059399      -7.37702821       2.00239914
C        8.47718208      -8.48814288       1.34813695
C        7.12382348      -8.81486886       1.46704619
H        3.06311115      -0.15471819       2.40723449
H        4.48787260      -1.58206278       3.84566946
H        4.02630201      -3.99222504       4.04604506
H        0.68575128      -3.57107438       1.34147976
H        2.77234209      -5.79185304       3.54601466
H        0.22835138      -7.65136551       5.38576311
H        1.74929569      -8.60902566       5.85906072
H        4.65114966      -9.21151620       1.76868961
H        6.19539176      -6.26286111       3.52756845
H        8.55645271      -5.71501125       3.29813417
H       10.05179402      -7.11716983       1.91040582
H        6.74203193      -9.68842466       0.94638647
C        9.34093669      -9.31061564       0.54125002
C       10.06433118      -9.99943657      -0.13451779
Br      11.23399888     -11.11320177      -1.22717718
C       -0.00445707       0.01189536      -1.78238275
H       -0.66409135       0.67374010      -2.43557963
H        0.65740317      -0.63156657      -2.45157240
C       -0.90989263      -0.90692880      -0.91072765
C        0.90977584       0.90977584      -0.90977584
C       -0.00465871       1.77757030       0.00794375
H       -0.66225468       2.44313916      -0.64384735
H        0.64322798       2.43503045       0.67728295
C       -1.78241447       0.00034974      -0.00472694
H       -2.45427497      -0.65498947       0.64260836
H       -2.43311707       0.67328779      -0.65473579
C       -0.91132561       0.90220522       0.91563759
C       -0.01476271      -0.02253852       1.78660255
H       -0.67934791      -0.69751639       2.42135241
H        0.63392994       0.61504881       2.47327442
C        0.01484550      -1.77751727      -0.01636693
H        0.67870853      -2.42144646      -0.68295456
H       -0.62264859      -2.45592969       0.64226336
C        1.78714474       0.01002794       0.00389507
H        2.44202412       0.67113390       0.66197326
H        2.45385902      -0.65136977      -0.64189061
C        0.91606151      -0.90478549       0.90901405
