166
Properties=species:S:1:pos:R:3 pbc="F F F"
C        1.79270954       1.79270954      -1.79270954
C        1.81011918       1.58400438      -3.17089585
C        2.61880038       2.38226732      -3.97568701
C        3.39674251       3.38780411      -3.39992192
C        3.37813351       3.61752383      -2.01317463
C        2.56895187       2.79708448      -1.21199467
C        4.21467038       4.72713325      -1.37559812
H        4.05472551       4.71527969      -0.28939027
C        3.89980068       6.11347073      -1.92488962
C        5.03763265       6.34761220      -2.87835498
N        6.07874203       5.52513653      -2.62842122
N        5.63963652       4.56354237      -1.63569009
C        6.45511478       3.66717385      -0.94691085
O        5.96591736       2.96197855      -0.05486126
C        7.87887232       3.57714654      -1.27294706
C        8.71162661       4.16594351      -2.21248877
C       10.01932648       3.66442659      -2.00766129
C        9.92298876       2.78854575      -0.95620386
Br      11.34707698       1.81813267      -0.23865925
O        8.64629886       2.72177702      -0.50533318
C        5.11882969       7.22918988      -3.99455220
C        5.87123209       7.10188859      -5.15201154
C        5.68817925       8.17415749      -6.06932199
C        4.80434963       9.10920532      -5.58516543
S        4.18641308       8.67634385      -4.05100982
H        1.21089894       0.80081634      -3.62361847
H        2.65733256       2.22574115      -5.04942455
H        4.04160167       3.99625567      -4.03292606
H        2.56480843       2.93969798      -0.13457514
H        3.94933678       6.86250334      -1.12475513
H        2.91633742       6.18146895      -2.40047115
H        8.40636748       4.88163071      -2.96124232
H       10.90975278       3.91939680      -2.56277949
H        6.51900606       6.24941318      -5.31913953
H        6.18261617       8.24995662      -7.02758091
H        4.48362781      10.02571818      -6.05691565
C       -1.79270954      -1.79270954      -1.79270954
C       -1.55661342      -3.16566773      -1.84273826
C       -2.35495927      -3.97024574      -2.65154970
C       -3.38774361      -3.39973633      -3.39698859
C       -3.64499374      -2.01867816      -3.34516008
C       -2.82439745      -1.21726280      -2.53637077
C       -4.78426374      -1.38734500      -4.14579301
H       -4.79105727      -0.30457584      -3.96376235
C       -6.15243814      -1.97134638      -3.81437651
C       -6.39067990      -2.90625925      -4.96666068
N       -5.59505717      -2.61844606      -6.01879655
N       -4.64486286      -1.61517460      -5.57883152
C       -3.77959060      -0.89173278      -6.39787609
O       -3.08262214       0.00460173      -5.90473676
C       -3.71236578      -1.18702005      -7.82958009
C       -4.29910747      -2.12148817      -8.66946324
C       -3.82889441      -1.87999430      -9.98252564
C       -2.97262993      -0.81286470      -9.88224375
Br      -2.04647127      -0.04685030     -11.31054733
O       -2.88867720      -0.38659216      -8.59813970
C       -7.25101911      -4.03852493      -5.05302773
C       -7.11590287      -5.17768072      -5.83154862
C       -8.16542358      -6.12041088      -5.64582427
C       -9.09164110      -5.67358342      -4.73349585
S       -8.67720846      -4.14362473      -4.09293356
H       -0.75225473      -3.61415973      -1.26891930
H       -2.17760514      -5.03953100      -2.71536212
H       -3.99644979      -4.03199488      -4.04233873
H       -2.98862799      -0.14331569      -2.50713787
H       -6.91834113      -1.18598573      -3.83226839
H       -6.19052839      -2.46799569      -2.83975344
H       -4.99308030      -2.89084916      -8.36531104
H       -4.09090192      -2.42215246     -10.87887469
H       -6.27376054      -5.31408177      -6.49971646
H       -8.23202875      -7.06984651      -6.15827843
H       -9.99163214      -6.17050874      -4.40412077
C       -1.79270954       1.79270954       1.79270954
C       -3.16906796       1.57358329       1.82236816
C       -3.97547338       2.38104941       2.62023192
C       -3.40114065       3.39475232       3.38857555
C       -2.01317865       3.61754675       3.37810658
C       -1.21343171       2.80527722       2.55932210
C       -1.37349228       4.71512755       4.22878192
H       -0.28937531       4.71519441       4.05482574
C       -1.65334903       4.56537577       5.71943624
C       -2.74293321       5.57555172       5.94511489
N       -2.79693610       6.48586595       4.94949773
N       -1.89430765       6.03796111       3.90660022
C       -1.49283758       6.77958665       2.79677525
O       -0.64247445       6.31205234       2.02823038
C       -2.06701080       8.10422687       2.55772824
C       -3.03930530       8.87975259       3.17100100
C       -3.13615764      10.09815901       2.45709771
C       -2.22242522      10.00746980       1.43784334
Br      -1.90772028      11.33370800       0.16244063
O       -1.57454138       8.81749855       1.48136912
C       -3.71633765       5.64304564       6.98318848
C       -4.99139295       6.18617716       6.94756211
C       -5.69808512       6.05767861       8.17589501
C       -4.93922989       5.42662676       9.13286373
S       -3.40153072       4.97356295       8.53867309
H       -3.62171115       0.78994242       1.22368017
H       -5.05117123       2.23569925       2.64562778
H       -4.03974164       4.03511235       3.99592942
H       -0.14204702       2.98229632       2.51473821
H       -0.77316552       4.85803654       6.30539319
H       -1.93880893       3.54946113       6.01000746
H       -3.61270610       8.59572657       4.04080784
H       -3.79223771      10.92872847       2.67096288
H       -5.38894963       6.64741132       6.05119782
H       -6.70539213       6.41310845       8.34165312
H       -5.21084558       5.20214167      10.15327440
C        1.79270954      -1.79270954       1.79270954
C        2.77500171      -2.58690127       1.20311643
C        3.57518567      -3.39683538       2.00473366
C        3.39463483      -3.40119758       3.38863611
C        2.41681072      -2.59501468       3.99700657
C        1.60815338      -1.79351739       3.17636026
C        2.22268939      -2.58124343       5.51346892
H        1.40294177      -1.89438081       5.76207289
C        3.47741766      -2.18053669       6.28020668
C        3.99991127      -3.50643524       6.75725332
N        3.04772231      -4.46294412       6.72163336
N        1.89734320      -3.90071091       6.04081487
C        0.62866627      -4.47336536       5.96716784
O       -0.29293305      -3.84302676       5.43266345
C        0.39429733      -5.80298164       6.53168694
C        1.18544052      -6.76770845       7.13690992
C        0.35190534      -7.85886221       7.48064680
C       -0.90832281      -7.51184878       7.06421239
Br      -2.42933937      -8.57682710       7.25638117
O       -0.90072330      -6.28366269       6.49046967
C        5.31933182      -3.87319841       7.15004155
C        5.93757825      -5.11185556       7.07569841
C        7.28069499      -5.10545278       7.54551096
C        7.65811000      -3.85792865       7.98268172
S        6.40754066      -2.70667367       7.79955243
H        2.91692339      -2.59104818       0.12736218
H        4.33579684      -4.03353503       1.56316638
H        4.01118260      -4.05133718       4.00826362
H        0.82660240      -1.18662332       3.62585584
H        3.21406055      -1.56978063       7.15275407
H        4.19962976      -1.62375922       5.67488854
H        2.24792621      -6.68863526       7.31267904
H        0.64608261      -8.77485979       7.97098667
H        5.42497750      -5.98129967       6.68128160
H        7.92685166      -5.97188341       7.56141862
H        8.60932492      -3.55983992       8.39709681
C       -0.00445707       0.01189536      -1.78238275
H       -0.66409135       0.67374010      -2.43557963
H        0.65740317      -0.63156657      -2.45157240
C       -0.90989263      -0.90692880      -0.91072765
C        0.90977584       0.90977584      -0.90977584
C       -0.00465871       1.77757030       0.00794375
H       -0.66225468       2.44313916      -0.64384735
H        0.64322798       2.43503045       0.67728295
C       -1.78241447       0.00034974      -0.00472694
H       -2.45427497      -0.65498947       0.64260836
H       -2.43311707       0.67328779      -0.65473579
C       -0.91132561       0.90220522       0.91563759
C       -0.01476271      -0.02253852       1.78660255
H       -0.67934791      -0.69751639       2.42135241
H        0.63392994       0.61504881       2.47327442
C        0.01484550      -1.77751727      -0.01636693
H        0.67870853      -2.42144646      -0.68295456
H       -0.62264859      -2.45592969       0.64226336
C        1.78714474       0.01002794       0.00389507
H        2.44202412       0.67113390       0.66197326
H        2.45385902      -0.65136977      -0.64189061
C        0.91606151      -0.90478549       0.90901405
