174
Properties=species:S:1:pos:R:3 pbc="F F F"
C        1.79270954       1.79270954      -1.79270954
C        1.81011918       1.58400438      -3.17089585
C        2.61880038       2.38226732      -3.97568701
C        3.39674251       3.38780411      -3.39992192
C        3.37813351       3.61752383      -2.01317463
C        2.56895187       2.79708448      -1.21199467
C        4.21467038       4.72713325      -1.37559812
H        4.05472551       4.71527969      -0.28939027
C        3.89980068       6.11347073      -1.92488962
C        5.03763265       6.34761220      -2.87835498
N        6.07874203       5.52513653      -2.62842122
N        5.63963652       4.56354237      -1.63569009
C        6.45511478       3.66717385      -0.94691085
O        5.96591736       2.96197855      -0.05486126
C        7.87887232       3.57714654      -1.27294706
C        8.71162661       4.16594351      -2.21248877
C       10.01932648       3.66442659      -2.00766129
C        9.92298876       2.78854575      -0.95620386
O        8.64629886       2.72177702      -0.50533318
C        5.11882969       7.22918988      -3.99455220
C        5.87123209       7.10188859      -5.15201154
C        5.68817925       8.17415749      -6.06932199
C        4.80434963       9.10920532      -5.58516543
S        4.18641308       8.67634385      -4.05100982
H        1.21089894       0.80081634      -3.62361847
H        2.65733256       2.22574115      -5.04942455
H        4.04160167       3.99625567      -4.03292606
H        2.56480843       2.93969798      -0.13457514
H        3.94933678       6.86250334      -1.12475513
H        2.91633742       6.18146895      -2.40047115
H        8.40636748       4.88163071      -2.96124232
H       10.90975278       3.91939680      -2.56277949
H        6.51900606       6.24941318      -5.31913953
H        6.18261617       8.24995662      -7.02758091
H        4.48362781      10.02571818      -6.05691565
C       11.02154673       2.03995798      -0.40268173
C       11.94158903       1.41301573       0.06089306
Br      13.42921961       0.39930313       0.81045428
C       -1.79270954      -1.79270954      -1.79270954
C       -1.66920598      -3.17915176      -1.71666167
C       -2.46726555      -3.98456523      -2.52492394
C       -3.38803373      -3.40043215      -3.39600265
C       -3.53201468      -2.00415894      -3.47265836
C       -2.71211240      -1.20360709      -2.66231153
C       -4.54922403      -1.35599707      -4.41218065
H       -4.47939600      -0.26450941      -4.31549006
C       -5.98296660      -1.80283978      -4.15235466
C       -6.20895883      -2.80972858      -5.24491242
N       -5.31319756      -2.67327343      -6.24582879
N       -4.31917195      -1.71305430      -5.80664272
C       -3.33574540      -1.12967044      -6.60378363
O       -2.60635445      -0.25169346      -6.12470926
C       -3.18314931      -1.54806305      -7.99775355
C       -3.77945434      -2.50145801      -8.80914654
C       -3.19072033      -2.40773999     -10.09295403
C       -2.25844576      -1.40525896     -10.00403364
O       -2.23848943      -0.88075798      -8.75416165
C       -7.15180783      -3.87544279      -5.31532115
C       -7.05281961      -5.08278394      -5.98952867
C       -8.18876011      -5.92281638      -5.82008225
C       -9.14198317      -5.33102941      -5.02570779
S       -8.65163570      -3.78939853      -4.47273253
H       -0.95191599      -3.63879193      -1.04462583
H       -2.37563986      -5.06592854      -2.49092986
H       -3.99588245      -4.03560468      -4.03929627
H       -2.78764017      -0.12151973      -2.72992165
H       -6.67677088      -0.96495850      -4.29486587
H       -6.13761845      -2.21174070      -3.14891837
H       -4.55679048      -3.18678378      -8.50566624
H       -3.42720712      -3.00117162     -10.96355033
H       -6.17599034      -5.33923636      -6.57233207
H       -8.29484119      -6.90382854      -6.26148397
H      -10.10314139      -5.72767603      -4.73544423
C       -1.41412521      -0.96556743     -11.08449380
C       -0.70700674      -0.59732577     -11.98937919
Br       0.43634401      -0.00191015     -13.45250232
C       -1.79270954       1.79270954       1.79270954
C       -3.17629914       1.76361707       1.62510320
C       -3.98139771       2.57209864       2.42325836
C       -3.40017994       3.39638108       3.38790751
C       -2.00738764       3.42515667       3.57628766
C       -1.20652915       2.61540318       2.75609870
C       -1.36313715       4.31291407       4.64135053
H       -0.27342124       4.18444758       4.60152664
C       -1.86203089       4.02396168       6.05216847
C       -2.84202671       5.14001138       6.28156175
N       -2.64760343       6.16277883       5.42191753
N       -1.67060386       5.72412323       4.44414189
C       -1.03309472       6.53204163       3.50406313
O       -0.14770131       6.04810680       2.78694906
C       -1.40426495       7.94233015       3.38237081
C       -2.35083131       8.76463598       3.97459160
C       -2.20012233      10.06209069       3.42920133
C       -1.17224944       9.97019182       2.52529711
O       -0.68534979       8.70577162       2.48228765
C       -3.93396125       5.21506506       7.19354546
C       -5.11673375       5.92920746       7.07919101
C       -5.99644951       5.75177804       8.18343119
C       -5.45886942       4.91095571       9.12889525
S       -3.92011778       4.32531609       8.66833289
H       -3.63346635       1.12817293       0.87369447
H       -5.05991813       2.57456195       2.29801817
H       -4.03425681       4.04049187       3.99603472
H       -0.12576953       2.64698769       2.86632433
H       -1.04223174       4.11931466       6.77504885
H       -2.30565128       3.02952858       6.16309767
H       -3.06886966       8.45930818       4.72106267
H       -2.77407672      10.94320123       3.67465112
H       -5.32805916       6.54591370       6.21358590
H       -6.96651665       6.22009834       8.27353871
H       -5.89382296       4.60429758      10.06814111
C       -0.67407502      11.06143660       1.72867482
C       -0.25685395      11.97535410       1.06150364
Br       0.41775724      13.45308141      -0.01725571
C        1.79270954      -1.79270954       1.79270954
C        2.70410359      -2.66348933       1.19742650
C        3.50388831      -3.47332994       1.99953646
C        3.39401168      -3.40147187       3.38898497
C        2.48861111      -2.51804861       4.00217225
C        1.67899679      -1.71711424       3.18192000
C        2.37282286      -2.42099157       5.52358732
H        1.60101795      -1.68206246       5.77631505
C        3.68288228      -2.04800789       6.20727087
C        4.16415539      -3.37412209       6.72532235
N        3.16618450      -4.28152689       6.78458839
N        2.01122285      -3.69510047       6.13254566
C        0.71419981      -4.20533201       6.14966766
O       -0.20180192      -3.55552746       5.62903163
C        0.44475283      -5.49239506       6.79181802
C        1.21802656      -6.46569668       7.40633565
C        0.35120457      -7.49508153       7.84512826
C       -0.91030045      -7.10494826       7.47309056
O       -0.87244409      -5.90796909       6.83788405
C        5.48254653      -3.78811427       7.07191098
C        6.03549557      -5.05877908       7.03085757
C        7.39951649      -5.09800340       7.43413885
C        7.85866556      -3.85160071       7.78845410
S        6.65761829      -2.64840633       7.60774213
H        2.79071889      -2.72694629       0.11766857
H        4.20931055      -4.16855487       1.55463284
H        4.00908942      -4.05137932       4.01031466
H        0.95164662      -1.05017145       3.63726347
H        3.49416546      -1.38310069       7.05932911
H        4.39946327      -1.55868049       5.54013377
H        2.29066263      -6.43238624       7.52619164
H        0.62525281      -8.40004280       8.36663347
H        5.46198060      -5.91908469       6.70649348
H        8.00292666      -5.99441142       7.46281562
H        8.84305916      -3.58259520       8.14060729
C       -2.11297073      -7.85755431       7.71960287
C       -3.12020710      -8.48786187       7.92605692
Br      -4.74882311      -9.50701590       8.25987567
C       -0.00445707       0.01189536      -1.78238275
H       -0.66409135       0.67374010      -2.43557963
H        0.65740317      -0.63156657      -2.45157240
C       -0.90989263      -0.90692880      -0.91072765
C        0.90977584       0.90977584      -0.90977584
C       -0.00465871       1.77757030       0.00794375
H       -0.66225468       2.44313916      -0.64384735
H        0.64322798       2.43503045       0.67728295
C       -1.78241447       0.00034974      -0.00472694
H       -2.45427497      -0.65498947       0.64260836
H       -2.43311707       0.67328779      -0.65473579
C       -0.91132561       0.90220522       0.91563759
C       -0.01476271      -0.02253852       1.78660255
H       -0.67934791      -0.69751639       2.42135241
H        0.63392994       0.61504881       2.47327442
C        0.01484550      -1.77751727      -0.01636693
H        0.67870853      -2.42144646      -0.68295456
H       -0.62264859      -2.45592969       0.64226336
C        1.78714474       0.01002794       0.00389507
H        2.44202412       0.67113390       0.66197326
H        2.45385902      -0.65136977      -0.64189061
C        0.91606151      -0.90478549       0.90901405
