113
Properties=species:S:1:pos:R:3 pbc="F F F"
C        0.00000000       0.00000000       0.00000000
C        0.88155976       0.88155976      -0.88155976
C        2.23211205       0.57897726      -1.03180265
C        3.03954893       1.38756528      -1.83530387
C        2.49649156       2.48796220      -2.51657660
C        1.13805039       2.79059962      -2.33472583
C        0.33194514       1.98844225      -1.52336173
C        3.35063169       3.39712284      -3.37435794
C        4.50239987       2.71344267      -4.09507741
O        5.66026210       3.07026293      -3.90015489
N        4.08611032       1.71981509      -4.96893124
C        4.89386135       0.88665877      -5.77143734
C        6.28930885       0.95416589      -5.80972487
C        7.02274391       0.09114730      -6.63157158
C        6.36790711      -0.84734662      -7.42490972
C        4.97859896      -0.91976570      -7.38844954
Br       4.07997833      -2.19042173      -8.46273404
C        4.24138194      -0.06313115      -6.56803402
H        2.66952925      -0.27650780      -0.52324947
H        4.09816393       1.14437393      -1.91910077
H        0.69667701       3.66112160      -2.81709655
H       -0.71767235       2.23920550      -1.39350072
H        3.76208558       4.18817176      -2.73653811
H        2.73446633       3.88331402      -4.14155874
H        3.08848273       1.54329055      -5.00565153
H        6.84420341       1.66817561      -5.20946919
H        8.10797570       0.15771325      -6.64820032
H        6.94601978      -1.51134191      -8.06119084
H        3.15779238      -0.14078014      -6.55640606
C       -0.88155976      -0.88155976      -0.88155976
C       -0.29475790      -1.79203525      -1.75609881
C       -1.10108529      -2.59597184      -2.56536094
C       -2.50003573      -2.51518584      -2.48580879
C       -3.07306495      -1.57541130      -1.61489959
C       -2.26739969      -0.76387455      -0.81247488
C       -3.39994787      -3.35500589      -3.36715870
C       -2.86527768      -4.73749669      -3.70814557
O       -2.68702912      -5.06687427      -4.87677652
N       -2.65313841      -5.53124039      -2.59047786
C       -2.14905615      -6.84851991      -2.55438139
C       -1.78577417      -7.57694636      -3.69047908
C       -1.29109874      -8.88071303      -3.57365102
C       -1.15614043      -9.47004687      -2.31928291
C       -1.51452315      -8.74777941      -1.18498024
Br      -1.33564308      -9.53963221       0.52298464
C       -2.00602676      -7.44520451      -1.29505355
H        0.78673222      -1.87951293      -1.82349021
H       -0.61882521      -3.28441992      -3.25839349
H       -4.15429951      -1.46029901      -1.56029664
H       -2.72914902      -0.04094162      -0.14494322
H       -3.57360018      -2.81050123      -4.30269404
H       -4.37604210      -3.49739184      -2.88590515
H       -2.84354959      -5.10176516      -1.69211005
H       -1.87241264      -7.16043795      -4.68899762
H       -1.01302414      -9.43231364      -4.46855150
H       -0.77325980     -10.48342911      -2.23917979
H       -2.27732178      -6.90190947      -0.39418706
C       -0.88155976       0.88155976       0.88155976
C       -0.70304598       2.26222551       0.87762048
C       -1.50699208       3.06853571       1.68689028
C       -2.51369105       2.50273636       2.48460296
C       -2.66351128       1.10720402       2.49266054
C       -1.85330004       0.29914397       1.69130510
C       -3.38405752       3.34746053       3.39059441
C       -3.69895630       4.74159972       2.87036393
O       -3.37963414       5.73535142       3.51569435
N       -4.38063190       4.73193293       1.66229183
C       -4.80312674       5.84445049       0.90438022
C       -4.59511412       7.17302496       1.28506053
C       -5.04301202       8.22464033       0.47781045
C       -5.70507437       7.95828402      -0.71788819
C       -5.91254858       6.63691043      -1.10217621
Br      -6.81132830       6.26484640      -2.72388405
C       -5.46524295       5.58320637      -0.30216450
H        0.06229820       2.72152133       0.25704779
H       -1.33324027       4.14400480       1.68439356
H       -3.40808024       0.63525984       3.13155509
H       -1.98314944      -0.77982123       1.71170565
H       -2.88169116       3.44498194       4.36012235
H       -4.34409770       2.84630587       3.56893552
H       -4.56081288       3.82088345       1.25572847
H       -4.08401186       7.43056534       2.20727101
H       -4.87194906       9.25219580       0.78974442
H       -6.05088825       8.78149345      -1.33651300
H       -5.63820585       4.56044430      -0.62523184
C        0.88155976      -0.88155976       0.88155976
C        1.78544370      -0.29462614       1.76282212
C        2.59465691      -1.10105901       2.56670215
C        2.48611708      -2.49945468       2.51545861
C        1.58554594      -3.07326753       1.60456237
C        0.78300264      -2.26778204       0.79296444
C        3.36627356      -3.40017310       3.35566581
C        3.74522435      -2.84544331       4.72025228
O        4.92347079      -2.68416265       5.02304648
N        2.64800977      -2.59550599       5.53134089
C        2.64812270      -2.06509511       6.83873965
C        3.80544671      -1.71038629       7.53736662
C        3.72440538      -1.18803016       8.83302725
C        2.48494768      -1.01651644       9.44400608
C        1.32963702      -1.36624313       8.75140264
Br      -0.35833289      -1.13779430       9.57282924
C        1.40401219      -1.88527037       7.45700225
H        1.87574239       0.78680759       1.82733612
H        3.31062118      -0.61934894       3.23166850
H        1.50748353      -4.15524267       1.51216896
H        0.09224203      -2.73017445       0.09261738
H        4.28716107      -3.60311689       2.79651749
H        2.86893233      -4.36347992       3.52692684
H        1.73768234      -2.77630550       5.12343697
H        4.79355480      -1.82510141       7.10319201
H        4.63542430      -0.91713991       9.36132506
H        2.43262474      -0.61233361      10.45091035
H        0.48732836      -2.14910178       6.93698817
