134
Properties=species:S:1:pos:R:3 pbc="F F F"
C        1.79146379       1.79146379      -1.79146379
C        3.14201608       1.48888128      -1.94170667
C        3.94945295       2.29746930      -2.74520789
C        3.40639558       3.39786623      -3.42648062
C        2.04795441       3.70050365      -3.24462985
C        1.24184916       2.89834627      -2.43326575
C        4.26053571       4.30702686      -4.28426196
C        5.41230389       3.62334669      -5.00498143
O        6.57016613       3.98016695      -4.81005891
N        4.99601435       2.62971912      -5.87883526
C        5.80376537       1.79656279      -6.68134136
C        7.19921287       1.86406992      -6.71962890
C        7.93264793       1.00105132      -7.54147561
C        7.27781113       0.06255740      -8.33481374
C        5.88850298      -0.00986168      -8.29835356
Br       4.98988236      -1.28051770      -9.37263807
C        5.15128597       0.84677288      -7.47793804
H        3.57943327       0.63339623      -1.43315349
H        5.00806795       2.05427795      -2.82900480
H        1.60658103       4.57102563      -3.72700058
H        0.19223167       3.14910952      -2.30340474
H        4.67198960       5.09807578      -3.64644214
H        3.64437036       4.79321804      -5.05146276
H        3.99838675       2.45319457      -5.91555555
H        7.75410743       2.57807964      -6.11937322
H        9.01787973       1.06761728      -7.55810435
H        7.85592380      -0.60143789      -8.97109486
H        4.06769640       0.76912389      -7.46631009
C       -1.79146379      -1.79146379      -1.79146379
C       -1.40330205      -3.09902399      -2.07027799
C       -2.20786443      -3.90443852      -2.87982720
C       -3.41992334      -3.41747632      -3.39334277
C       -3.78330527      -2.08955112      -3.12023152
C       -2.97439555      -1.28005372      -2.31901191
C       -4.30084608      -4.25743070      -4.29354775
C       -4.29410797      -5.74927146      -3.99725259
O       -3.94920743      -6.55461312      -4.85657143
N       -4.73408835      -6.05317761      -2.71730276
C       -4.83157135      -7.32845006      -2.12164811
C       -4.49388368      -8.52034153      -2.76868647
C       -4.61635749      -9.74885433      -2.10996304
C       -5.07940993      -9.79810658      -0.79766577
C       -5.41479180      -8.61366370      -0.14853937
Br      -6.04530962      -8.67012792       1.63343482
C       -5.29188021      -7.38435615      -0.79976053
H       -0.47470556      -3.49971250      -1.67156493
H       -1.87193721      -4.91646619      -3.10294729
H       -4.69708515      -1.66990903      -3.53761306
H       -3.27156460      -0.25374893      -2.11943241
H       -3.97720506      -4.10890242      -5.33040004
H       -5.34322624      -3.92067570      -4.22514922
H       -4.97521372      -5.26536308      -2.12656007
H       -4.12820277      -8.53283638      -3.79052114
H       -4.34853328     -10.66609992      -2.62896815
H       -5.17307690     -10.75684290      -0.29566097
H       -5.55874886      -6.47384048      -0.27054104
C       -1.79146379       1.79146379       1.79146379
C       -1.48082626       3.13889414       1.95288364
C       -2.28511450       3.94466451       2.76235113
C       -3.42153580       3.41556936       3.39363727
C       -3.70566046       2.04995308       3.23747437
C       -2.89619070       1.24101371       2.43625677
C       -4.29820308       4.25711582       4.29650564
C       -4.41914036       5.72073524       3.90075642
O       -4.07622334       6.60739538       4.67677328
N       -4.96506419       5.90114045       2.63836410
C       -5.19422875       7.12062265       1.96681813
C       -4.90068363       8.37613459       2.50609347
C       -5.15558640       9.54285029       1.77673818
C       -5.70826289       9.46595689       0.50096250
C       -6.00019175       8.21786163      -0.04105850
Br      -6.75165006       8.10296607      -1.77261340
C       -5.74530093       7.04984291       0.68085304
H       -0.61252770       3.57134511       1.46211018
H       -2.00887003       4.99046889       2.89201178
H       -4.55658991       1.60098608       3.74703125
H       -3.13125107       0.18531015       2.32818471
H       -3.89563026       4.20594934       5.31492792
H       -5.31578605       3.84690571       4.32635940
H       -5.18790049       5.05829595       2.12094044
H       -4.46891162       8.48695047       3.49569819
H       -4.92035412      10.51111202       2.21213522
H       -5.90447517      10.37746625      -0.05636064
H       -5.98075568       6.08760517       0.23476953
C        1.79146379      -1.79146379       1.79146379
C        3.14636313      -1.92536205       1.50087885
C        3.95222010      -2.73480363       2.30510642
C        3.41510240      -3.39374358       3.42189645
C        2.04254845      -3.26495589       3.68558357
C        1.23374756      -2.46372723       2.87598640
C        4.25709871      -4.29718486       4.29754097
C        5.71166661      -3.87939852       4.44956689
O        6.61678034      -4.63479272       4.10881893
N        5.86179876      -2.62354632       5.01922365
C        7.06587674      -1.93589073       5.27990206
C        8.33494772      -2.44934516       4.99861881
C        9.48487763      -1.70520030       5.28509693
C        9.37744623      -0.44033235       5.85740369
C        8.11577046       0.07601665       6.13724106
Br       7.95940788       1.79257058       6.91516542
C        6.96441266      -0.66070825       5.85087597
H        3.58479441      -1.41299599       0.64819259
H        5.00447556      -2.84251193       2.04436320
H        1.58820817      -3.79608124       4.52031782
H        0.17263861      -2.37707328       3.09503404
H        4.22970333      -5.30940765       3.87739654
H        3.83069389      -4.35089929       5.30745798
H        5.00681581      -2.12393271       5.23638836
H        8.46948805      -3.42959205       4.55248018
H       10.46406997      -2.12053000       5.05900138
H       10.27609983       0.12859804       6.07807899
H        5.99105946      -0.23459927       6.07747165
C       -0.00445707       0.01189536      -1.78238275
H       -0.66409135       0.67374010      -2.43557963
H        0.65740317      -0.63156657      -2.45157240
C       -0.90989263      -0.90692880      -0.91072765
C        0.90977584       0.90977584      -0.90977584
C       -0.00465871       1.77757030       0.00794375
H       -0.66225468       2.44313916      -0.64384735
H        0.64322798       2.43503045       0.67728295
C       -1.78241447       0.00034974      -0.00472694
H       -2.45427497      -0.65498947       0.64260836
H       -2.43311707       0.67328779      -0.65473579
C       -0.91132561       0.90220522       0.91563759
C       -0.01476271      -0.02253852       1.78660255
H       -0.67934791      -0.69751639       2.42135241
H        0.63392994       0.61504881       2.47327442
C        0.01484550      -1.77751727      -0.01636693
H        0.67870853      -2.42144646      -0.68295456
H       -0.62264859      -2.45592969       0.64226336
C        1.78714474       0.01002794       0.00389507
H        2.44202412       0.67113390       0.66197326
H        2.45385902      -0.65136977      -0.64189061
C        0.91606151      -0.90478549       0.90901405
