109
Properties=species:S:1:pos:R:3 pbc="F F F"
C        0.00000000       0.00000000       0.00000000
C        0.86729090       0.86729090      -0.86729090
C        0.78755468       2.23621574      -0.95995661
C        1.77381738       2.62361243      -1.89923570
C        2.42316623       1.46950131      -2.30285854
O        1.84699352       0.39343514      -1.68078344
C        3.48545326       1.28676058      -3.28094475
O        3.62413951       2.08942812      -4.20542207
N        4.36088659       0.20102740      -3.14638586
C        4.36117301      -0.71732026      -2.01553804
C        5.24928920      -0.11475066      -4.26044476
C        4.61615804      -1.14385209      -5.14984770
C        3.76701067      -0.93933518      -6.22348054
C        3.36958743      -2.16100142      -6.84534776
C        3.93264758      -3.24172101      -6.21666722
S        4.93648229      -2.81667083      -4.92141373
H        0.09787396       2.87691071      -0.42764730
H        2.00076289       3.62252934      -2.24724330
H        4.12227931      -0.19007179      -1.08828722
H        5.35546692      -1.15733497      -1.89385565
H        3.62872686      -1.50919928      -2.19428353
H        6.21237254      -0.45480633      -3.86310207
H        5.46142882       0.78543753      -4.84823208
H        3.44549992       0.04553860      -6.54437972
H        2.70748166      -2.22746037      -7.69989016
C        3.70149609      -4.60545599      -6.61716179
C        3.50790672      -5.74758404      -6.95257599
Br       3.19488908      -7.59430849      -7.49491238
C       -0.86729090      -0.86729090      -0.86729090
C       -1.51555383      -0.45962645      -2.00854673
C       -2.22212755      -1.59112669      -2.48341126
C       -1.93795342      -2.63632953      -1.62124313
O       -1.12246400      -2.17872903      -0.62001907
C       -2.43057196      -4.00593038      -1.61665626
O       -3.52165486      -4.27585644      -2.12147840
N       -1.64060370      -5.01594785      -1.05174829
C       -0.28473114      -4.81714402      -0.55751563
C       -2.24686528      -6.32391311      -0.82420490
C       -2.78886049      -6.40568990       0.57239674
C       -4.04268645      -6.03401754       1.02554796
C       -4.20923600      -6.26828460       2.42358682
C       -3.07421890      -6.80663734       2.97326246
S       -1.83482013      -7.05308530       1.84668024
H       -1.49359520       0.53158652      -2.44042330
H       -2.86256862      -1.65495223      -3.35301467
H        0.25157320      -4.09429385      -1.17777408
H        0.26928343      -5.75956371      -0.60170732
H       -0.32628793      -4.46394244       0.47641927
H       -1.49989470      -7.10183489      -1.01893869
H       -3.06193986      -6.49732284      -1.53583573
H       -4.80395473      -5.61075789       0.37929439
H       -5.11211487      -6.04726393       2.97946734
C       -2.94485988      -7.13717326       4.36883125
C       -2.83652170      -7.41399709       5.53762011
Br      -2.66134803      -7.86159780       7.42745285
C       -0.86729090       0.86729090       0.86729090
C       -1.18774049       0.61603353       2.17995300
C       -2.03230936       1.67708550       2.58727065
C       -2.15305983       2.53499028       1.50747598
O       -1.45207720       2.02017787       0.44895702
C       -2.93394282       3.75491751       1.36429828
O       -3.94693296       3.92801065       2.04404609
N       -2.50847476       4.73836429       0.46146080
C       -1.25615595       4.68401602      -0.28078119
C       -3.42489608       5.82834367       0.14174354
C       -4.21674792       5.49310414      -1.08769841
C       -5.41564674       4.80662873      -1.17111943
C       -5.88279057       4.68547968      -2.51433647
C       -5.01804132       5.28387064      -3.39431817
S       -3.68192167       5.99959376      -2.64029024
H       -0.86463761      -0.23131587       2.76911024
H       -2.50104354       1.81729787       3.55219412
H       -0.46689725       4.22975355       0.32384393
H       -0.93019867       5.69696871      -0.53517977
H       -1.40491155       4.10544926      -1.19654971
H       -2.84975007       6.75296834       0.01794988
H       -4.11426592       6.00599530       0.97483721
H       -5.93101099       4.40831043      -0.30390319
H       -6.79848677       4.18404569      -2.80262100
C       -5.22322000       5.30937936      -4.81939747
C       -5.39505715       5.33074291      -6.01290139
Br      -5.67290328       5.36528597      -7.94269627
C        0.86729090      -0.86729090       0.86729090
C        0.64063754      -2.19302330       1.15006617
C        1.69086766      -2.59542770       2.01037014
C        2.51897584      -1.49873424       2.17781600
O        1.99530916      -0.43597920       1.48992374
C        3.71604360      -1.34561388       2.99150113
O        3.88147629      -2.04560986       3.99190355
N        4.68699041      -0.40941602       2.61189341
C        4.64441879       0.36172685       1.37669884
C        5.74663191      -0.08627723       3.56207416
C        5.36260931       1.11507306       4.37461740
C        4.64586957       1.15272944       5.55801591
C        4.48078210       2.48084247       6.05399414
C        5.07794547       3.39574928       5.22539760
S        5.84359546       2.69193267       3.88956240
H       -0.18409124      -2.79416439       0.79235883
H        1.84340900      -3.56790502       2.45922150
H        4.22405554      -0.23408535       0.56235383
H        5.65833943       0.64813514       1.08178332
H        4.04023834       1.25950771       1.53308047
H        6.68142044       0.07358879       3.01283664
H        5.92809811      -0.93150473       4.23549560
H        4.25669163       0.26390367       6.04263027
H        3.95072635       2.73458795       6.96377305
C        5.06368239       4.81558611       5.46510561
C        5.05173706       6.00469946       5.66586107
Br       5.03242247       7.92739517       5.99046568
