169
Properties=species:S:1:pos:R:3 pbc="F F F"
C        0.00000000       0.00000000       0.00000000
C        0.88360610       0.88360610      -0.88360610
C        0.91349367       2.26392901      -0.71646719
C        1.72133931       3.05056214      -1.55980672
C        2.45493346       2.47373042      -2.62973581
C        2.33602848       1.08948500      -2.80999163
C        1.62140357       0.29444706      -1.90230138
C        3.29148178       3.37690379      -3.52849774
N        3.92365405       2.80876739      -4.74890151
C        4.96626560       1.75738851      -4.59600988
C        4.68971212       0.28320857      -4.94563840
O        4.87667144      -0.62259206      -4.08080288
N        4.28642253      -0.01371335      -6.22836685
C        3.97317405       3.49210181      -5.99506840
O        4.32138881       2.96282203      -6.95130594
C        3.68661521       5.03761387      -5.97427623
S        1.94969052       5.43324746      -6.37966959
C        1.97003957       7.24148325      -6.51448981
C        2.17488545       7.82650202      -7.77898447
C        2.02037188       9.20938502      -7.97501514
C        1.68450744      10.02693302      -6.90152370
Br       1.42967511      11.88431047      -7.16371483
C        1.49761511       9.47420205      -5.63683132
C        1.60987927       8.08008052      -5.43648103
C        1.25661315       7.52617083      -4.08383931
H        0.31055388       2.73200294       0.06140634
H        1.73660644       4.12758839      -1.38306523
H        2.74914822       0.57390158      -3.66964294
H        1.62873741      -0.78657105      -2.03512826
H        4.09324403       3.84470114      -2.94120593
H        2.61925009       4.17922374      -3.84140639
H        5.32704405       1.77954266      -3.56131769
H        5.83090557       2.03467956      -5.22503638
H        4.19858849      -1.02471643      -6.48144096
H        4.30928155       0.66838859      -6.98422816
H        4.32343150       5.46317563      -6.76001829
H        4.00933146       5.49529374      -5.02989468
H        2.41291983       7.20900306      -8.64388430
H        2.13791206       9.63415522      -8.97145205
H        1.23027061      10.12677083      -4.80614210
H        0.33214530       6.94102368      -4.14848605
H        1.08969182       8.32455046      -3.35179545
H        2.07181293       6.89984401      -3.70636604
C       -0.88360610      -0.88360610      -0.88360610
C       -1.87911112      -1.68283189      -0.33194686
C       -2.66098926      -2.50018383      -1.17053508
C       -2.40919248      -2.58395944      -2.56524777
C       -1.34733327      -1.82053131      -3.06764052
C       -0.64347552      -0.92361655      -2.25105994
C       -3.26940245      -3.50640133      -3.42107953
N       -2.90560136      -3.73006099      -4.84566060
C       -2.95126028      -2.57944523      -5.78895847
C       -1.66787072      -1.92145853      -6.32922985
O       -1.47720343      -0.67870416      -6.17897468
N       -0.77345958      -2.71268536      -7.01493109
C       -2.97861864      -4.99974334      -5.48198229
O       -2.53938911      -5.16792722      -6.52820044
C       -3.82437906      -6.11214668      -4.76197956
S       -2.79450406      -7.22513689      -3.74296662
C       -3.96815948      -8.51415598      -3.24369718
C       -4.07313972      -9.67870772      -4.02852450
C       -4.82631267     -10.78312733      -3.59533205
C       -5.50496802     -10.72494078      -2.38305536
Br      -6.48538971     -12.22334185      -1.76896885
C       -5.43354422      -9.57580629      -1.59929798
C       -4.64614452      -8.47509593      -2.00520036
C       -4.49229290      -7.32202302      -1.05230737
H       -2.04821551      -1.67760000       0.74466503
H       -3.44782485      -3.09560789      -0.70382733
H       -0.99271325      -1.91184874      -4.08813076
H        0.11630894      -0.28873148      -2.70487208
H       -4.31162549      -3.15975639      -3.40776922
H       -3.25144487      -4.47409040      -2.91434494
H       -3.55153332      -1.78443296      -5.33193813
H       -3.50302359      -2.89535294      -6.69224499
H        0.04321844      -2.23635146      -7.46217999
H       -0.99130982      -3.66368879      -7.30689969
H       -4.27077156      -6.70731760      -5.56853627
H       -4.65940210      -5.68046838      -4.19464940
H       -3.53208406      -9.76391461      -4.96980853
H       -4.85562811     -11.69127123      -4.19662000
H       -5.96701954      -9.54655662      -0.64960739
H       -3.46424654      -7.28301111      -0.67439738
H       -5.15703075      -7.42228193      -0.18672505
H       -4.74440430      -6.38102563      -1.55259305
C       -0.88360610       0.88360610       0.88360610
C       -0.40277272       1.41616889       2.07494826
C       -1.24809597       2.20816305       2.87544914
C       -2.60923784       2.41833459       2.53082727
C       -3.07301342       1.80030207       1.36218961
C       -2.20261018       1.10603240       0.50950943
C       -3.48598746       3.26201963       3.44887622
N       -4.94767782       3.34596089       3.18768424
C       -5.41758316       3.97769245       1.92438837
C       -6.00439152       3.14449162       0.76967597
O       -5.50344597       3.22210460      -0.39066831
N       -7.10781114       2.36298715       1.03027773
C       -5.92948655       3.31486669       4.21599103
O       -7.04594622       3.21858764       3.97098291
C       -5.43468636       3.57937086       5.68444808
S       -5.12178553       2.03381252       6.60700952
C       -4.80719367       2.62751098       8.29130799
C       -5.88205879       2.70005544       9.19825772
C       -5.66873519       2.97665745      10.55937939
C       -4.37904639       3.20993152      11.02398625
Br      -4.07561306       3.53870736      12.86337999
C       -3.30211302       3.16461975      10.14191571
C       -3.50005607       2.84688703       8.77949772
C       -2.28748451       2.67151731       7.90762147
H        0.62219131       1.21648011       2.38686167
H       -0.82808786       2.62776059       3.79141163
H       -4.12013401       1.79135486       1.08120388
H       -2.59127707       0.71642256      -0.43040501
H       -3.10690846       4.29251267       3.47972996
H       -3.34731427       2.84393851       4.44862743
H       -4.59283090       4.56720981       1.50786369
H       -6.21223947       4.70259849       2.17578355
H       -7.55659251       1.88088345       0.21783705
H       -7.63519683       2.42763311       1.89906836
H       -6.25877018       4.10855129       6.17930396
H       -4.57229250       4.25862264       5.70360474
H       -6.90007621       2.49635714       8.86937384
H       -6.50987653       2.98174096      11.25190184
H       -2.29672643       3.34506842      10.52138870
H       -2.17894157       1.61832457       7.62438889
H       -1.36975997       2.96809441       8.42818335
H       -2.37234013       3.29463553       7.01104731
C        0.88360610      -0.88360610       0.88360610
C        2.03881724      -0.38175819       1.47331444
C        2.84116864      -1.22673189       2.26380763
C        2.53735504      -2.60522087       2.41582379
C        1.40710779      -3.08628382       1.74211350
C        0.54846919      -2.22142807       1.04825475
C        3.45646999      -3.47942471       3.26098862
N        3.24375125      -4.95112742       3.28644428
C        1.97704094      -5.48510561       3.85751743
C        0.87224834      -6.08108024       2.96523051
O       -0.30682300      -5.62254808       3.01915718
N        1.19738421      -7.14715051       2.15654130
C        4.30614874      -5.89603056       3.25816497
O        4.10362573      -7.01607599       3.11581506
C        5.74669758      -5.36153859       3.59026913
S        6.70935778      -4.96398481       2.08926498
C        8.36068369      -4.61369779       2.75163116
C        9.30161985      -5.65925449       2.81949760
C       10.64437203      -5.40994808       3.15045193
C       11.05557342      -4.11425419       3.44313655
Br      12.87113195      -3.76064160       3.84592685
C       10.13849697      -3.06674308       3.40340844
C        8.79529995      -3.29929578       3.03184509
C        7.88805796      -2.11142508       2.86714026
H        2.32133607       0.65948045       1.31929485
H        3.72725454      -0.79097969       2.72902585
H        1.16328643      -4.14133146       1.68807486
H       -0.36364479      -2.62772959       0.61320982
H        3.43932368      -3.13570379       4.30412363
H        4.46429970      -3.29262671       2.88295380
H        1.51235986      -4.69593278       4.45961176
H        2.23142712      -6.29564207       4.56355233
H        0.41780918      -7.60597160       1.63153223
H        2.08137203      -7.64688322       2.23364305
H        6.25188245      -6.18643226       4.10831071
H        5.71284661      -4.52321211       4.29846116
H        9.01550656      -6.68005343       2.57024720
H       11.36525339      -6.22693108       3.15133487
H       10.47636423      -2.05604357       3.63077575
H        7.63687568      -1.97581410       1.80896525
H        8.36599159      -1.18757971       3.21246643
H        6.97449431      -2.24814406       3.45538460
