189
Properties=species:S:1:pos:R:3 pbc="F F F"
C        0.00000000       0.00000000       0.00000000
C        0.88248644       0.88248644      -0.88248644
C        2.13099902       1.29181752      -0.41654485
C        2.93244270       2.10592826      -1.21475156
C        2.48920738       2.49108802      -2.48111394
C        1.24265327       2.06137641      -2.96149552
C        0.42642897       1.26889877      -2.14402124
C        0.83237908       2.49703572      -4.33090914
O        1.31044325       3.53773652      -4.76853377
N       -0.05032261       1.65782996      -4.98856408
C       -0.60854711       1.84269443      -6.27095378
C       -0.24627389       2.87006742      -7.13964561
C       -0.87184183       3.00590223      -8.38714130
C       -1.88200056       2.12236973      -8.78795788
C       -2.22460647       1.07797045      -7.91914010
C       -1.59111622       0.93509973      -6.67875410
C       -2.60568389       2.27287405     -10.05012016
C       -2.39013275       3.28195712     -10.97222567
S       -3.50678924       3.14808542     -12.26803183
C       -4.16446904       1.75932925     -11.52629211
N       -3.62004755       1.38884499     -10.39906232
N       -5.19539981       1.20887269     -12.23313369
C       -5.85506986       0.06965084     -11.83610745
O       -5.66076977      -0.57664856     -10.81344109
C       -6.93842034      -0.38244159     -12.76484629
C       -6.92009743      -0.08881846     -14.13800045
C       -7.96543951      -0.51146445     -14.96265501
C       -9.02329791      -1.24476748     -14.42748137
C       -9.02862294      -1.56171273     -13.06972747
C       -7.99407184      -1.13782709     -12.23665721
H        2.48337694       0.99095229       0.56689684
H        3.90149214       2.44217195      -0.85374211
H        3.12113207       3.12913311      -3.09767900
H       -0.56799527       0.97039411      -2.45954706
H       -0.33721224       0.81106591      -4.51891645
H        0.52603897       3.58819201      -6.88264329
H       -0.55014309       3.82770489      -9.01960135
H       -3.00599250       0.37048858      -8.19691384
H       -1.90375139       0.11786182      -6.03424630
H       -1.67323154       4.08847032     -10.95781722
H       -5.47595196       1.72383093     -13.05067754
H       -6.09099190       0.44175639     -14.59693492
H       -7.95014776      -0.27873440     -16.02525248
H       -9.83114220      -1.57344378     -15.07673701
H       -8.00389541      -1.38948141     -11.17772750
C      -10.11488231      -2.33470557     -12.52555595
C      -11.02462453      -2.98208708     -12.06981230
Br     -12.49560076      -4.02884823     -11.33291336
C       -0.88248644      -0.88248644      -0.88248644
C       -2.21860648      -1.08224230      -0.53851261
C       -3.02206283      -1.89574252      -1.33531718
C       -2.49037820      -2.49001061      -2.48102053
C       -1.15189139      -2.27182881      -2.84180500
C       -0.33888828      -1.47883118      -2.02162952
C       -0.64741278      -2.92541707      -4.08749410
O       -1.20303730      -3.95239478      -4.46128147
N        0.40609021      -2.28521466      -4.71694698
C        1.07882848      -2.69745558      -5.88647400
C        0.68835330      -3.78044396      -6.67134847
C        1.42977809      -4.14758522      -7.80339459
C        2.58514298      -3.44503269      -8.16843734
C        2.95843983      -2.34300558      -7.38793833
C        2.21093850      -1.96894858      -6.26472754
C        3.42298268      -3.83976195      -9.30053105
C        3.18550679      -4.92846572     -10.12109112
S        4.45111002      -5.09247947     -11.26795855
C        5.19392240      -3.70384806     -10.61122667
N        4.57661156      -3.13047811      -9.61399320
N        6.36162677      -3.37139646     -11.23683687
C        7.11354007      -2.27344709     -10.89078142
O        6.88880074      -1.48207754      -9.98274595
C        8.34554122      -2.07264327     -11.71688231
C        8.44672254      -2.53772791     -13.03807920
C        9.62554916      -2.34808172     -13.76321848
C       10.70120971      -1.67763596     -13.18298973
C       10.59201344      -1.19008810     -11.88131713
C        9.42269048      -1.38110045     -11.14634830
H       -2.63932249      -0.61807706       0.34996716
H       -4.06143957      -2.06912482      -1.06684181
H       -3.12485557      -3.12597254      -3.09711607
H        0.71537917      -1.33963003      -2.23769505
H        0.74461613      -1.42320148      -4.31418477
H       -0.19483801      -4.36596691      -6.43606935
H        1.07885250      -5.00212962      -8.37388603
H        3.85156729      -1.77169657      -7.64128064
H        2.55096548      -1.11630031      -5.68302190
H        2.37322279      -5.63883668     -10.10744211
H        6.66484661      -4.01669670     -11.94670642
H        7.61391116      -3.02482181     -13.53678876
H        9.70203631      -2.71328445     -14.78512219
H       11.61384746      -1.53060393     -13.75539457
H        9.34369063      -0.99710780     -10.13093351
C       11.69976071      -0.48263770     -11.29309108
C       12.62749906       0.10985202     -10.80045176
Br      14.12757350       1.06785777     -10.00389565
C       -0.88248644       0.88248644       0.88248644
C       -1.30365073       2.12489659       0.41081407
C       -2.09878809       2.93612492       1.21820952
C       -2.48335688       2.49319436       2.48485810
C       -2.07964462       1.23323228       2.95264829
C       -1.25470830       0.43374705       2.15089363
C       -2.53658038       0.81198575       4.31175781
O       -2.80124122       1.69025666       5.12521566
N       -2.63372402      -0.55359487       4.51594228
C       -3.01627487      -1.21376698       5.70259321
C       -3.48404099      -0.56290239       6.84230053
C       -3.81409846      -1.28863168       7.99573492
C       -3.67259368      -2.68145691       8.03719027
C       -3.22393311      -3.33128752       6.87985849
C       -2.90625292      -2.60764737       5.72413206
C       -3.93979280      -3.46532018       9.24283770
C       -4.34727326      -2.93952031      10.45629709
S       -4.46073591      -4.18372806      11.63232016
C       -3.99216579      -5.31595129      10.44493781
N       -3.76207717      -4.84393236       9.24971494
N       -3.92304746      -6.59510999      10.91866910
C       -3.59255863      -7.67184672      10.12997652
O       -3.28111877      -7.65023496       8.94513895
C       -3.59790139      -8.99109826      10.83718123
C       -4.39914353      -9.23455638      11.96449742
C       -4.35362182     -10.47438288      12.60651211
C       -3.52512194     -11.48314791      12.11744195
C       -2.75051921     -11.25245725      10.98132984
C       -2.78277827     -10.01594285      10.33792284
H       -1.01119708       2.47293662      -0.57670131
H       -2.41992109       3.91296700       0.86451812
H       -3.10332923       3.13443923       3.11017572
H       -0.87420965      -0.51839258       2.50612883
H       -2.41524060      -1.16449119       3.74202070
H       -3.60995340       0.51481653       6.87210433
H       -4.16991649      -0.72662291       8.85386956
H       -3.10164937      -4.41446244       6.87422299
H       -2.54736841      -3.15665712       4.85764544
H       -4.56227096      -1.91757232      10.72835736
H       -4.08651241      -6.69439572      11.90643983
H       -5.08867708      -8.48742646      12.34644879
H       -4.97258208     -10.65827151      13.48205976
H       -3.49834637     -12.44668354      12.62048821
H       -2.17624412      -9.84275355       9.45086010
C       -1.90990136     -12.30384215      10.46990885
C       -1.20588391     -13.18437700      10.04159377
Br      -0.06754725     -14.60812738       9.34904451
C        0.88248644      -0.88248644       0.88248644
C        1.53890155      -1.97763043       0.32282940
C        2.33483900      -2.79035454       1.12792899
C        2.48461333      -2.49322631       2.48356970
C        1.84322712      -1.37806165       3.04423643
C        1.01907064      -0.58150086       2.23877749
C        2.05533215      -1.10655080       4.49844100
O        2.34008738      -2.05384118       5.22278499
N        1.92337094       0.21514769       4.88784818
C        2.04941780       0.73686326       6.19254655
C        2.45811464      -0.00943108       7.29589341
C        2.52727624       0.57475184       8.56867730
C        2.17807744       1.91657914       8.76682874
C        1.79052769       2.66690093       7.64887731
C        1.73349125       2.08668923       6.37593560
C        2.17034319       2.54204152      10.08900865
C        2.49205347       1.89982827      11.27182485
S        2.26954111       2.96146424      12.60125114
C        1.79527526       4.18678125      11.51265831
N        1.79214989       3.87038466      10.24609453
N        1.47846319       5.36273849      12.13088186
C        1.09674867       6.49260415      11.44654391
O        0.94617960       6.60601096      10.23585412
C        0.81716936       7.68303599      12.30985099
C        1.42282059       7.85839337      13.56465735
C        1.11339733       8.97401443      14.34636814
C        0.21489270       9.92932983      13.87385311
C       -0.36538517       9.77120054      12.61597752
C       -0.06927907       8.65733486      11.83137220
H        1.42975910      -2.21100329      -0.73332999
H        2.83893270      -3.65521708       0.70325642
H        3.10703388      -3.13484938       3.10606093
H        0.46019253       0.25130586       2.65305923
H        1.71821679       0.90029375       4.17484708
H        2.73649477      -1.05469961       7.20567989
H        2.84914348      -0.05726395       9.39075571
H        1.51180863       3.71442616       7.76402744
H        1.41160005       2.70679318       5.54354987
H        2.81857612       0.88499007      11.43946995
H        1.49769534       5.33558636      13.13644754
H        2.16021715       7.15766504      13.94514729
H        1.58127831       9.10468421      15.31977623
H       -0.01766549      10.79683600      14.48665253
H       -0.52507406       8.54044541      10.84987013
C       -1.27918929      10.77005635      12.12521370
C       -2.04450023      11.60659808      11.71419900
Br      -3.28194330      12.95921531      11.04962299
