181
Properties=species:S:1:pos:R:3 pbc="F F F"
C        0.00000000       0.00000000       0.00000000
C        0.88248644       0.88248644      -0.88248644
C        2.13099902       1.29181752      -0.41654485
C        2.93244270       2.10592826      -1.21475156
C        2.48920738       2.49108802      -2.48111394
C        1.24265327       2.06137641      -2.96149552
C        0.42642897       1.26889877      -2.14402124
C        0.83237908       2.49703572      -4.33090914
O        1.31044325       3.53773652      -4.76853377
N       -0.05032261       1.65782996      -4.98856408
C       -0.60854711       1.84269443      -6.27095378
C       -0.24627389       2.87006742      -7.13964561
C       -0.87184183       3.00590223      -8.38714130
C       -1.88200056       2.12236973      -8.78795788
C       -2.22460647       1.07797045      -7.91914010
C       -1.59111622       0.93509973      -6.67875410
C       -2.60568389       2.27287405     -10.05012016
C       -2.39013275       3.28195712     -10.97222567
S       -3.50678924       3.14808542     -12.26803183
C       -4.16446904       1.75932925     -11.52629211
N       -3.62004755       1.38884499     -10.39906232
N       -5.19539981       1.20887269     -12.23313369
C       -5.85506986       0.06965084     -11.83610745
O       -5.66076977      -0.57664856     -10.81344109
C       -6.93842034      -0.38244159     -12.76484629
C       -6.92009743      -0.08881846     -14.13800045
C       -7.96543951      -0.51146445     -14.96265501
C       -9.02329791      -1.24476748     -14.42748137
C       -9.02862294      -1.56171273     -13.06972747
Br     -10.45476436      -2.57656898     -12.35528894
C       -7.99407184      -1.13782709     -12.23665721
H        2.48337694       0.99095229       0.56689684
H        3.90149214       2.44217195      -0.85374211
H        3.12113207       3.12913311      -3.09767900
H       -0.56799527       0.97039411      -2.45954706
H       -0.33721224       0.81106591      -4.51891645
H        0.52603897       3.58819201      -6.88264329
H       -0.55014309       3.82770489      -9.01960135
H       -3.00599250       0.37048858      -8.19691384
H       -1.90375139       0.11786182      -6.03424630
H       -1.67323154       4.08847032     -10.95781722
H       -5.47595196       1.72383093     -13.05067754
H       -6.09099190       0.44175639     -14.59693492
H       -7.95014776      -0.27873440     -16.02525248
H       -9.83114220      -1.57344378     -15.07673701
H       -8.00389541      -1.38948141     -11.17772750
C       -0.88248644      -0.88248644      -0.88248644
C       -2.26970079      -0.78502601      -0.78463459
C       -3.07627013      -1.59684978      -1.58000261
C       -2.49185598      -2.48815034      -2.48140302
C       -1.09588138      -2.57157493      -2.59806889
C       -0.28807135      -1.77645436      -1.77482328
C       -0.53303504      -3.53565871      -3.59163019
O       -1.21314462      -4.51004598      -3.89352295
N        0.71675486      -3.21809111      -4.09473518
C        1.47775737      -3.96177192      -5.02108654
C        1.01406371      -5.09990172      -5.67760112
C        1.84420532      -5.80391805      -6.56148898
C        3.16100109      -5.39010930      -6.79921884
C        3.61264260      -4.23162281      -6.15352386
C        2.77948216      -3.52168932      -5.28053046
C        4.07873090      -6.13675924      -7.65928197
C        3.76755141      -7.31291521      -8.31868625
S        5.14697203      -7.91065071      -9.14564934
C        6.03331315      -6.56143938      -8.59302609
N        5.38664631      -5.70583903      -7.84866704
N        7.33114819      -6.55921142      -9.01854333
C        8.21960392      -5.55438318      -8.71590918
O        8.01043848      -4.57120877      -8.01525245
C        9.58641581      -5.73006610      -9.30033407
C        9.81006905      -6.46037587     -10.47877774
C       11.10656259      -6.61781050     -10.97450313
C       12.18325581      -6.03259945     -10.31007234
C       11.95959577      -5.28317729      -9.15581028
Br      13.42183979      -4.47282701      -8.27296837
C       10.67037631      -5.12667009      -8.64846449
H       -2.73035536      -0.08923679      -0.08784024
H       -4.15914279      -1.53822805      -1.50003536
H       -3.12967790      -3.12038222      -3.09788407
H        0.79365042      -1.86006175      -1.79553457
H        1.14940520      -2.36120923      -3.78096609
H        0.00502488      -5.47179592      -5.53010323
H        1.42888306      -6.68510243      -7.04094378
H        4.63142588      -3.87871666      -6.31411914
H        3.18204166      -2.63828464      -4.79211376
H        2.83873833      -7.86148106      -8.35031328
H        7.61247982      -7.37468446      -9.53635188
H        8.99106279      -6.89248015     -11.04628205
H       11.27674309      -7.18767431     -11.88543911
H       13.18885722      -6.15648491     -10.70452334
H       10.50260594      -4.53954418      -7.74741244
C       -0.88248644       0.88248644       0.88248644
C       -1.17859559       2.18318243       0.47758337
C       -1.97352927       2.99346472       1.28612854
C       -2.48277982       2.49303658       2.48559293
C       -2.20496840       1.17647246       2.88408433
C       -1.37999632       0.37522469       2.08412798
C       -2.79166027       0.69658815       4.17207553
O       -3.05469630       1.53307400       5.02894325
N       -2.99954391      -0.66871165       4.26523917
C       -3.51599314      -1.37976186       5.36886981
C       -4.02164738      -0.77703116       6.51882291
C       -4.48797568      -1.55492183       7.58814786
C       -4.44810677      -2.95392077       7.53414104
C       -3.96005291      -3.55294341       6.36539458
C       -3.50600949      -2.77603527       5.29276340
C       -4.85993421      -3.79804657       8.65542268
C       -5.31997033      -3.32944253       9.87352224
S       -5.60895147      -4.64098971      10.94136625
C       -5.13268043      -5.71922921       9.70770110
N       -4.78043888      -5.18321569       8.57063656
N       -5.18947615      -7.03003942      10.08716983
C       -4.87676167      -8.07064245       9.24456921
O       -4.47599710      -7.98950810       8.08953375
C       -5.02806518      -9.43209501       9.84801419
C       -5.92724866      -9.69287174      10.89470765
C       -6.01746196     -10.97458803      11.44287711
C       -5.22724389     -12.00621457      10.93838667
C       -4.35478975     -11.75550842       9.88011048
Br      -3.30320509     -13.16472191       9.18547241
C       -4.25151178     -10.47799034       9.33123683
H       -0.78870643       2.57659101      -0.45786505
H       -2.19768702       4.01417399       0.98554520
H       -3.10166284       3.13379298       3.11248837
H       -1.09517210      -0.62550480       2.39227860
H       -2.76665971      -1.23853534       3.46464575
H       -4.07350266       0.30236179       6.62100982
H       -4.86725277      -1.02926535       8.45917573
H       -3.91401483      -4.63918548       6.28658056
H       -3.12213929      -3.28840738       4.41462483
H       -5.48264322      -2.31579864      10.20621142
H       -5.43362499      -7.18577691      11.05070843
H       -6.58951440      -8.92446186      11.28264687
H       -6.71214294     -11.17220707      12.25643446
H       -5.30621920     -13.00194339      11.36787522
H       -3.56907211     -10.28926716       8.50454573
C        0.88248644      -0.88248644       0.88248644
C        1.04265860      -2.23068208       0.56602071
C        1.83754659      -3.03981637       1.37575957
C        2.48222459      -2.49275344       2.48643131
C        2.34091867      -1.13081450       2.79379203
C        1.51620807      -0.32748591       1.99565501
C        3.06834710      -0.60380984       3.98816701
O        3.33679886      -1.39083404       4.88908065
N        3.38784616       0.74246443       3.95068970
C        4.04789878       1.49080136       4.94800368
C        4.59988275       0.93833535       6.10189173
C        5.21242329       1.75462286       7.06340128
C        5.27607946       3.14373117       6.89597875
C        4.73972670       3.68959543       5.72237280
C        4.13919106       2.87300340       4.75654996
C        5.84391390       4.03437919       7.90777560
C        6.36659936       3.62423095       9.12168164
S        6.84392981       4.98541612      10.05081431
C        6.35078022       6.00140862       8.77178072
N        5.86456431       5.41068541       7.71398086
N        6.53988263       7.32822083       9.03494476
C        6.23899059       8.32328838       8.13498622
O        5.73810842       8.18716656       7.02508089
C        6.54459551       9.70977708       8.60916593
C        7.54546023       9.97440613       9.55803046
C        7.77961144      11.28251847       9.98865807
C        7.03185364      12.33459383       9.46215617
C        6.05735367      12.07684553       8.49888367
Br       5.06313059      13.51124184       7.77206684
C        5.81048701      10.77394105       8.06821230
H        0.54686289      -2.66104744      -0.30047794
H        1.95651537      -4.09579277       1.14509807
H        3.10009166      -3.13275092       3.11510160
H        1.33605845       0.71428961       2.24017706
H        3.13350735       1.26637050       3.12563326
H        4.57678114      -0.13052598       6.28956715
H        5.62149187       1.26779821       7.94346948
H        4.77108747       4.76657631       5.55689876
H        3.72394185       3.34646550       3.87088038
H        6.47791328       2.62919564       9.52433837
H        6.87491784       7.53678968       9.96042836
H        8.17663846       9.18554982       9.95661077
H        8.55296210      11.48351725      10.72692548
H        7.22289591      13.35036620       9.79962133
H        5.04888685      10.57974639       7.31521021
