109
Properties=species:S:1:pos:R:3 pbc="F F F"
C        0.00000000       0.00000000       0.00000000
C        0.88130687       0.88130687      -0.88130687
C        0.30119208       1.85639049      -1.68703527
C        1.11202950       2.65843037      -2.49678548
C        2.50439989       2.49248261      -2.50599018
C        3.07031760       1.51382868      -1.68581629
C        2.26177414       0.70692492      -0.87666266
N        3.24866414       3.34132871      -3.35442775
C        4.61753757       3.33516774      -3.55296197
O        5.42529643       2.55657819      -3.05663802
C        5.13373000       4.36685657      -4.50163603
C        4.52853700       5.62328098      -4.64665934
C        5.05596233       6.55428696      -5.54803308
C        6.19184327       6.23557756      -6.29239289
C        6.81238904       4.99749168      -6.14121441
C        6.28535771       4.06597921      -5.24346029
H       -0.77592685       2.00016056      -1.69434190
H        0.63606798       3.41275338      -3.11786221
H        4.14264711       1.34682926      -1.65158152
H        2.72547800      -0.05164409      -0.25131254
H        2.70151686       3.97743709      -3.91785393
H        3.66963394       5.91064970      -4.04692909
H        4.58325494       7.52792062      -5.65357538
H        7.70529410       4.74802269      -6.70895819
H        6.77653698       3.10166859      -5.12162866
C        6.73348037       7.19805648      -7.21644027
C        7.18710144       8.00413258      -7.99032996
Br       7.92056835       9.30748945      -9.24164413
C       -0.88130687      -0.88130687      -0.88130687
C       -1.10091266      -2.21060839      -0.53309679
C       -1.90510422      -3.01600759      -1.34613354
C       -2.49443473      -2.49946604      -2.50897191
C       -2.26915033      -1.16129603      -2.83951621
C       -1.46210096      -0.35312058      -2.03014018
N       -3.28902695      -3.38085309      -3.27454055
C       -3.93355328      -3.10516083      -4.46695318
O       -3.89115675      -2.05224434      -5.09511155
C       -4.72327333      -4.23291207      -5.04603720
C       -5.36092605      -5.19162035      -4.24593092
C       -6.09138336      -6.22591813      -4.84098088
C       -6.19498133      -6.29444736      -6.23038503
C       -5.58181182      -5.33556158      -7.03372173
C       -4.85001961      -4.30375152      -6.44102607
H       -0.65270840      -2.62966234       0.36379513
H       -2.06155624      -4.05112234      -1.05400498
H       -2.70487632      -0.71028007      -3.72590150
H       -1.29724551       0.68374422      -2.31164516
H       -3.33268663      -4.33107766      -2.93304360
H       -5.33101255      -5.13462547      -3.16157471
H       -6.58572641      -6.96458357      -4.21444096
H       -5.66956037      -5.37617337      -8.11654124
H       -4.37780581      -3.55119120      -7.07083722
C       -6.95070105      -7.35865358      -6.83862249
C       -7.58361632      -8.24992629      -7.34802137
Br      -8.60698677      -9.69103889      -8.17167627
C       -0.88130687       0.88130687       0.88130687
C       -2.15980919       0.45580086       1.22900779
C       -2.96589403       1.26869940       2.03265192
C       -2.50057547       2.50852365       2.49377356
C       -1.21228435       2.91666392       2.14101429
C       -0.40393317       2.10738291       1.33404563
N       -3.37919407       3.26795865       3.29726787
C       -3.15165771       4.52402896       3.82998061
O       -2.15701753       5.22169796       3.65979715
C       -4.26098533       5.07978269       4.66145459
C       -5.10528972       4.26459152       5.42859608
C       -6.12724929       4.83836278       6.19267030
C       -6.29665081       6.22296350       6.20019941
C       -5.45064588       7.04329641       5.45715284
C       -4.43144103       6.47158092       4.69177526
H       -2.53877666      -0.50147186       0.88127081
H       -3.96086550       0.91536171       2.29045636
H       -0.80162061       3.86483285       2.47460443
H        0.59300019       2.44962683       1.06851982
H       -4.29408165       2.86286495       3.43986128
H       -4.96589229       3.18822727       5.47309316
H       -6.77675912       4.20049621       6.78749562
H       -5.56943589       8.12385000       5.46898910
H       -3.76676572       7.11544112       4.11762740
C       -7.34754687       6.80965407       6.99077619
C       -8.22767232       7.30100742       7.65288425
Br      -9.65076073       8.09548423       8.72345697
C        0.88130687      -0.88130687       0.88130687
C        1.05197915      -0.56658603       2.22605267
C        1.86437819      -1.37400572       3.02886144
C        2.50915030      -2.49890084       2.49482155
C        2.32105116      -2.80399619       1.14491521
C        1.51151742      -1.99632042       0.33752387
N        3.31334810      -3.25789559       3.37317691
C        4.06568939      -4.37652155       3.06345635
O        4.20183709      -4.88248738       1.95418816
C        4.80761969      -4.98831203       4.20629088
C        4.31944368      -4.95870314       5.52033050
C        5.05401706      -5.55093614       6.55332917
C        6.26592919      -6.18182956       6.27205496
C        6.75010821      -6.23416022       4.96682670
C        6.01895927      -5.64102432       3.93481362
H        0.56123389       0.30119159       2.65853330
H        1.98297387      -1.10778537       4.07592432
H        2.79319561      -3.66545733       0.68240495
H        1.38525875      -2.25141045      -0.71152274
H        3.38574947      -2.89672833       4.31433009
H        3.35816242      -4.51175865       5.75729165
H        4.66825436      -5.52672512       7.56977146
H        7.68751815      -6.73548641       4.73927042
H        6.39588687      -5.68969802       2.91424934
C        7.01709468      -6.79318386       7.33769858
C        7.64619578      -7.30519309       8.23017512
Br       8.66339905      -8.13306870       9.67323418
