174
Properties=species:S:1:pos:R:3 pbc="F F F"
C        1.79153103       1.79153103      -1.79153103
C        1.29135549       2.99496207      -2.28065773
C        2.09626084       3.80406587      -3.08384855
C        3.40629875       3.41780023      -3.40881554
C        4.22122949       4.34151164      -4.27312527
C        3.89927412       2.20101264      -2.89896629
C        3.09034992       1.38937512      -2.09321716
N        5.23772575       1.80700564      -3.15369802
C        6.21642044       1.94142827      -2.06702225
N        6.00231108       3.07554034      -1.20219041
C        6.33809697       4.35551716      -1.54045206
O        6.95946033       4.76768489      -2.50032830
C        5.74779027       5.21830206      -0.52108006
C        5.69737730       6.59529215      -0.43883180
C        4.97632817       7.14364198       0.62698406
C        4.33735214       6.30722960       1.56722588
Br       3.34796844       7.09004193       2.97657242
C        4.40193495       4.91588323       1.46740490
C        5.11730855       4.40351161       0.40367207
C        5.30672028       3.02030385      -0.02834008
O        4.87678216       2.05427003       0.57187745
C        5.54646038       0.88663640      -4.15144548
O        6.63935346       0.31730258      -4.20334953
C        4.48539140       0.57038428      -5.18189673
H        0.27897535       3.31258639      -2.04350708
H        1.69467630       4.74386728      -3.45960601
H        3.67996214       4.56053126      -5.19946585
H        5.18690664       3.91568877      -4.55810010
H        4.40738790       5.28082700      -3.74224500
H        3.47901984       0.45862624      -1.68698296
H        7.21281887       2.04103102      -2.51454877
H        6.19757362       1.01593005      -1.47863607
H        6.17840846       7.22136593      -1.18436713
H        4.90105091       8.22586940       0.71727830
H        3.89968601       4.25855891       2.16967519
H        3.82274972       1.41452592      -5.38002316
H        3.90090852      -0.28906214      -4.84304464
H        4.97526567       0.32064414      -6.12776709
C       -1.79153103      -1.79153103      -1.79153103
C       -3.15890510      -1.54179481      -1.86627537
C       -3.96625375      -2.34401898      -2.67390252
C       -3.41674286      -3.40468351      -3.41148814
C       -4.34375176      -4.22465150      -4.26746313
C       -2.03024760      -3.63841352      -3.33059192
C       -1.22081915      -2.83286389      -2.51925916
N       -1.42913955      -4.66049767      -4.10879218
C       -0.66333315      -4.26400285      -5.29753495
N       -1.18175119      -3.10935953      -5.98893112
C       -2.26878369      -3.15040377      -6.81487874
O       -2.89999804      -4.10638264      -7.22109285
C       -2.60955392      -1.76266768      -7.11495079
C       -3.67635676      -1.23841277      -7.81673172
C       -3.78431146       0.15538377      -7.86405840
C       -2.83186856       0.97160798      -7.21709528
Br      -3.03175544       2.85146835      -7.28115085
C       -1.75834698       0.42151615      -6.51358246
C       -1.67966975      -0.95636882      -6.48110952
C       -0.74611107      -1.83266432      -5.77658883
O        0.19817947      -1.43594121      -5.12141300
C       -1.11986980      -5.90274763      -3.56192484
O       -0.35120567      -6.69114380      -4.11765610
C       -1.73790264      -6.26889198      -2.23087778
H       -3.60601813      -0.72722155      -1.30182914
H       -5.03430096      -2.13834268      -2.72550595
H       -5.16946570      -4.61017015      -3.66032339
H       -3.85024076      -5.08692827      -4.72352648
H       -4.75530347      -3.60459837      -5.07055806
H       -0.14817400      -3.00477311      -2.47168194
H       -0.66202733      -5.10625339      -6.00011795
H        0.37179240      -4.07768935      -4.98624279
H       -4.41012459      -1.88395732      -8.29005962
H       -4.62061783       0.60632992      -8.39535409
H       -1.02892083       1.03390781      -5.99355670
H       -2.71964391      -5.81644743      -2.08120746
H       -1.06273730      -5.96591680      -1.42623692
H       -1.87740908      -7.35337916      -2.19288865
C       -1.79153103       1.79153103       1.79153103
C       -3.15958560       1.86285367       1.54453602
C       -3.96797132       2.66526615       2.35093779
C       -3.41778525       3.40624674       3.40888253
C       -4.34827621       4.24471301       4.24287718
C       -2.03308725       3.31631340       3.64985239
C       -1.22247320       2.51094219       2.83952682
N       -1.45065132       4.00062531       4.74715278
C       -1.07723418       3.21633082       5.93130596
N       -1.95365025       2.10761792       6.21877367
C       -3.17715365       2.24735372       6.80955883
O       -3.69359137       3.23069514       7.30318702
C       -3.83588114       0.94865233       6.70263891
C       -5.11786797       0.56843112       7.04520217
C       -5.49609077      -0.74322185       6.74011717
C       -4.59009809      -1.62374905       6.11100682
Br      -5.15200382      -3.38002020       5.68945434
C       -3.29640232      -1.22016767       5.77417864
C       -2.95260902       0.08043331       6.08410576
C       -1.73023100       0.82817289       5.79696033
O       -0.75056078       0.35089541       5.25771855
C       -0.79113120       5.21490968       4.57850139
O       -0.04068189       5.67905199       5.44027169
C       -0.99581470       5.96229273       3.27956498
H       -3.60651132       1.29934927       0.72920824
H       -5.03695699       2.71215074       2.14904186
H       -4.91845039       4.92249493       3.59901393
H       -3.82245492       4.86324102       4.97499956
H       -5.04796283       3.59898920       4.78350788
H       -0.15645787       2.43002841       3.03814276
H       -1.08257478       3.88549384       6.80033005
H       -0.05247721       2.85290266       5.78675987
H       -5.80674443       1.26748470       7.50991240
H       -6.50420086      -1.07580081       6.98124196
H       -2.59433302      -1.87775088       5.27198759
H       -1.98170758       5.79174700       2.84384422
H       -0.21948262       5.66634508       2.56906332
H       -0.91423966       7.03595990       3.47347734
C        1.79153103      -1.79153103       1.79153103
C        1.76299616      -3.17384877       1.63013035
C        2.57027741      -3.98153906       2.43235878
C        3.41069929      -3.41714927       3.40506596
C        4.25977610      -4.34612467       4.22996563
C        3.43323661      -2.01638650       3.54962994
C        2.62217288      -1.20658553       2.74418379
N        4.31475622      -1.40578235       4.47789085
C        5.52002195      -0.74818584       3.95666316
N        6.09813616      -1.38366352       2.79824217
C        6.85483233      -2.51904321       2.86019066
O        7.28385092      -3.11465778       3.82896483
C        7.03880228      -2.96599295       1.48237716
C        7.63510779      -4.10849732       0.98789614
C        7.58167085      -4.30700250      -0.39568726
C        6.94257066      -3.36652553      -1.23174033
Br       6.86730140      -3.68832490      -3.09418835
C        6.34670203      -2.21558647      -0.71187521
C        6.41201427      -2.04823596       0.65689785
C        5.82826614      -1.01604134       1.51105673
O        5.20869404      -0.05669582       1.09378488
C        3.87326990      -0.98276468       5.72850769
O        4.52810562      -0.20507763       6.42682233
C        2.53357555      -1.48555643       6.21854042
H        1.11798335      -3.63241677       0.88466870
H        2.54052531      -5.06147116       2.29615313
H        3.62912428      -5.10318933       4.70764563
H        4.80300004      -3.83105946       5.02663601
H        4.99180896      -4.84901904       3.58963189
H        2.65395228      -0.12447365       2.84620311
H        6.27635397      -0.74107564       4.75096906
H        5.26274746       0.29173361       3.72112590
H        8.10360965      -4.83030470       1.65022718
H        8.02767243      -5.20390383      -0.82193425
H        5.83365770      -1.49287192      -1.33795989
H        2.29224493      -2.48155989       5.84349398
H        1.75452281      -0.77822880       5.92213941
H        2.55991016      -1.55357742       7.31018931
C       -0.00445707       0.01189536      -1.78238275
H       -0.66409135       0.67374010      -2.43557963
H        0.65740317      -0.63156657      -2.45157240
C       -0.90989263      -0.90692880      -0.91072765
C        0.90977584       0.90977584      -0.90977584
C       -0.00465871       1.77757030       0.00794375
H       -0.66225468       2.44313916      -0.64384735
H        0.64322798       2.43503045       0.67728295
C       -1.78241447       0.00034974      -0.00472694
H       -2.45427497      -0.65498947       0.64260836
H       -2.43311707       0.67328779      -0.65473579
C       -0.91132561       0.90220522       0.91563759
C       -0.01476271      -0.02253852       1.78660255
H       -0.67934791      -0.69751639       2.42135241
H        0.63392994       0.61504881       2.47327442
C        0.01484550      -1.77751727      -0.01636693
H        0.67870853      -2.42144646      -0.68295456
H       -0.62264859      -2.45592969       0.64226336
C        1.78714474       0.01002794       0.00389507
H        2.44202412       0.67113390       0.66197326
H        2.45385902      -0.65136977      -0.64189061
C        0.91606151      -0.90478549       0.90901405
