182
Properties=species:S:1:pos:R:3 pbc="F F F"
C        1.79153103       1.79153103      -1.79153103
C        1.29135549       2.99496207      -2.28065773
C        2.09626084       3.80406587      -3.08384855
C        3.40629875       3.41780023      -3.40881554
C        4.22122949       4.34151164      -4.27312527
C        3.89927412       2.20101264      -2.89896629
C        3.09034992       1.38937512      -2.09321716
N        5.23772575       1.80700564      -3.15369802
C        6.21642044       1.94142827      -2.06702225
N        6.00231108       3.07554034      -1.20219041
C        6.33809697       4.35551716      -1.54045206
O        6.95946033       4.76768489      -2.50032830
C        5.74779027       5.21830206      -0.52108006
C        5.69737730       6.59529215      -0.43883180
C        4.97632817       7.14364198       0.62698406
C        4.33735214       6.30722960       1.56722588
C        4.40193495       4.91588323       1.46740490
C        5.11730855       4.40351161       0.40367207
C        5.30672028       3.02030385      -0.02834008
O        4.87678216       2.05427003       0.57187745
C        5.54646038       0.88663640      -4.15144548
O        6.63935346       0.31730258      -4.20334953
C        4.48539140       0.57038428      -5.18189673
H        0.27897535       3.31258639      -2.04350708
H        1.69467630       4.74386728      -3.45960601
H        3.67996214       4.56053126      -5.19946585
H        5.18690664       3.91568877      -4.55810010
H        4.40738790       5.28082700      -3.74224500
H        3.47901984       0.45862624      -1.68698296
H        7.21281887       2.04103102      -2.51454877
H        6.19757362       1.01593005      -1.47863607
H        6.17840846       7.22136593      -1.18436713
H        4.90105091       8.22586940       0.71727830
H        3.89968601       4.25855891       2.16967519
H        3.82274972       1.41452592      -5.38002316
H        3.90090852      -0.28906214      -4.84304464
H        4.97526567       0.32064414      -6.12776709
C        3.58415069       6.90317168       2.64013809
C        2.95334448       7.40227317       3.53870207
Br       1.93338418       8.20927807       4.99160402
C       -1.79153103      -1.79153103      -1.79153103
C       -1.20342756      -2.73981033      -2.62373740
C       -2.00717531      -3.54904604      -3.42795391
C       -3.40476203      -3.41684012      -3.41131236
C       -4.21095349      -4.32678569      -4.29812721
C       -3.98372921      -2.45794858      -2.55757526
C       -3.17602148      -1.64584715      -1.75107357
N       -5.39400091      -2.33764171      -2.46678679
C       -6.05938373      -2.88705531      -1.27843191
N       -5.45085037      -4.08187401      -0.74731746
C       -5.61422979      -5.32042838      -1.29940802
O       -6.35061674      -5.67966065      -2.19719614
C       -4.66051124      -6.19876389      -0.62789725
C       -4.34139736      -7.51965022      -0.87045368
C       -3.30968775      -8.07607842      -0.10721991
C       -2.63861902      -7.30342213       0.86468529
C       -2.97789951      -5.96879391       1.09628013
C       -3.99711697      -5.44587843       0.32584731
C       -4.52958749      -4.08646515       0.26068842
O       -4.15927517      -3.17488646       0.97498689
C       -6.08401416      -1.34438283      -3.15614529
O       -7.24554349      -1.03787383      -2.87658825
C       -5.36040140      -0.61266473      -4.26460628
H       -0.12305513      -2.85770992      -2.65430377
H       -1.53599216      -4.28824188      -4.07391555
H       -3.86294131      -4.24396329      -5.33305464
H       -5.27730649      -4.08603933      -4.29734969
H       -4.09667241      -5.36477635      -3.96901114
H       -3.62628657      -0.91796790      -1.08037457
H       -7.09570291      -3.12611895      -1.54657681
H       -6.07758027      -2.10523172      -0.50932776
H       -4.85578979      -8.09097570      -1.63737604
H       -3.01896330      -9.11083212      -0.27984658
H       -2.45873784      -5.35484053       1.82500864
H       -4.61676460      -1.23374120      -4.76679300
H       -4.88194483       0.27984827      -3.85279445
H       -6.08908683      -0.31148237      -5.02310770
C       -1.56582582      -7.89939240       1.61803394
C       -0.66736151      -8.39851750       2.24896343
Br       0.78537928      -9.20556057       3.26912306
C       -1.79153103       1.79153103       1.79153103
C       -2.20852712       3.03455127       1.32389689
C       -3.01705943       3.84072338       2.12639245
C       -3.41386062       3.41503122       3.40402268
C       -4.29189437       4.33121014       4.21276190
C       -2.98962363       2.15125495       3.85837446
C       -2.17767519       1.34301995       3.05224706
N       -3.42092971       1.66033432       5.11716538
C       -4.46346199       0.62613155       5.13527741
N       -5.44701444       0.74574961       4.08727779
C       -6.47075821       1.64949649       4.11381150
O       -6.82811077       2.39236205       5.00700071
C       -7.08166629       1.61749483       2.78801127
C       -8.08299886       2.39975672       2.24874567
C       -8.40142061       2.18836152       0.90320395
C       -7.71756550       1.21123015       0.14856022
C       -6.70847350       0.42851564       0.71342414
C       -6.41357967       0.66183237       2.04173605
C       -5.37594916       0.08524459       2.89417047
O       -4.61097710      -0.79036297       2.53856061
C       -2.60629546       1.73469894       6.24354788
O       -2.82921305       1.07150356       7.25928896
C       -1.40023187       2.64596802       6.19147252
H       -1.91123378       3.38518519       0.33864986
H       -3.33816907       4.81051849       1.74946203
H       -3.82224944       5.31642267       4.30128714
H       -4.46651543       3.96595543       5.22822465
H       -5.26344916       4.44590726       3.72110348
H       -1.86545538       0.36067086       3.39850281
H       -4.98629762       0.68440056       6.09770048
H       -3.97066450      -0.35183094       5.07330619
H       -8.58278708       3.16070991       2.84064454
H       -9.17546723       2.79619157       0.43798320
H       -6.15892723      -0.31263194       0.14227444
H       -1.55348336       3.51473948       5.54907597
H       -0.53432936       2.07579560       5.84476606
H       -1.20049890       3.02499742       7.19818058
C       -8.05376134       1.03377694      -1.24035400
C       -8.33532536       0.88515988      -2.40356966
Br      -8.79059057       0.64485866      -4.28439100
C        1.79153103      -1.79153103       1.79153103
C        2.11723325      -3.07810537       1.37163666
C        2.92555758      -3.88459747       2.17402021
C        3.41326131      -3.41553842       3.40411479
C        4.28552210      -4.33520467       4.21513963
C        3.08068882      -2.10856007       3.81000415
C        2.26886633      -1.30001242       3.00406345
N        3.60515281      -1.57732496       5.01595164
C        4.69937586      -0.60220060       4.92329450
N        5.61654748      -0.82970638       3.83378798
C        6.59192765      -1.78554485       3.85659370
O        6.95860778      -2.49950510       4.76936064
C        7.13017701      -1.85587935       2.50111602
C        8.05854041      -2.71871395       1.95424689
C        8.31336556      -2.59517874       0.58444178
C        7.64085465      -1.62255645      -0.18605524
C        6.70617877      -0.75751735       0.38671717
C        6.47273369      -0.90509375       1.73932065
C        5.51464636      -0.22910849       2.61160937
O        4.77782560       0.66742752       2.24877666
C        2.85064246      -1.54842873       6.18547109
O        3.16294638      -0.84661471       7.15044448
C        1.59787431      -2.39377988       6.24601821
H        1.74865505      -3.46259436       0.42381942
H        3.17479085      -4.88876892       1.83458983
H        3.77093427      -5.28730634       4.38171863
H        4.53419037      -3.92785301       5.19865213
H        5.22144168      -4.52827569       3.68074252
H        2.02746980      -0.28540127       3.31175798
H        5.27038450      -0.63898099       5.85903318
H        4.25534070       0.39673718       4.83353622
H        8.54981806      -3.47414304       2.56018043
H        9.02819607      -3.26779351       0.11365243
H        6.16539291      -0.01803674      -0.19485991
H        1.67043769      -3.30180257       5.64505854
H        0.74504764      -1.79582150       5.91402187
H        1.43415156      -2.70855273       7.28097260
C        7.90926749      -1.53609036      -1.59817357
C        8.13406324      -1.46367500      -2.78082267
Br       8.49753896      -1.34658549      -4.69306623
C       -0.00445707       0.01189536      -1.78238275
H       -0.66409135       0.67374010      -2.43557963
H        0.65740317      -0.63156657      -2.45157240
C       -0.90989263      -0.90692880      -0.91072765
C        0.90977584       0.90977584      -0.90977584
C       -0.00465871       1.77757030       0.00794375
H       -0.66225468       2.44313916      -0.64384735
H        0.64322798       2.43503045       0.67728295
C       -1.78241447       0.00034974      -0.00472694
H       -2.45427497      -0.65498947       0.64260836
H       -2.43311707       0.67328779      -0.65473579
C       -0.91132561       0.90220522       0.91563759
C       -0.01476271      -0.02253852       1.78660255
H       -0.67934791      -0.69751639       2.42135241
H        0.63392994       0.61504881       2.47327442
C        0.01484550      -1.77751727      -0.01636693
H        0.67870853      -2.42144646      -0.68295456
H       -0.62264859      -2.45592969       0.64226336
C        1.78714474       0.01002794       0.00389507
H        2.44202412       0.67113390       0.66197326
H        2.45385902      -0.65136977      -0.64189061
C        0.91606151      -0.90478549       0.90901405
