174
Properties=species:S:1:pos:R:3 pbc="F F F"
C        1.79196747       1.79196747      -1.79196747
C        1.43389467       3.12186896      -2.01731852
C        2.24618071       3.93440368      -2.81178723
C        3.41385630       3.41917780      -3.37592794
C        3.75072724       2.08488359      -3.15213886
C        2.95328280       1.26599139      -2.35306138
O        4.95426340       1.52287979      -3.61442701
C        5.35159582       1.73282375      -4.92556746
O        4.75321475       2.34898497      -5.79451577
C        6.64601493       1.02201643      -5.15221439
C        7.10035277       0.87650682      -6.46044597
C        8.28876743       0.18630463      -6.67917308
C        8.98453086      -0.32925331      -5.59125436
C        8.47010405      -0.13286110      -4.31097253
N        7.31100630       0.53434461      -4.07087073
C        9.21450183      -0.71257705      -3.15455359
O       10.18755567      -1.44115759      -3.29239187
O        8.62782716      -0.30812005      -1.96477740
C        9.11982187      -0.81027259      -0.74358927
C       10.48064761      -0.93564381      -0.46245148
C       10.88490299      -1.44174213       0.77430460
C        9.93158566      -1.79352571       1.73202807
C        8.57479911      -1.62758591       1.45145420
C        8.16036951      -1.13051272       0.21724140
H        0.53189029       3.53570733      -1.57399274
H        1.97355747       4.97267279      -2.98388317
H        4.04827680       4.06337676      -3.97767715
H        3.24439243       0.23619922      -2.16936625
H        6.53505133       1.28009868      -7.29601976
H        8.66464915       0.04427461      -7.68945206
H        9.91069979      -0.87865995      -5.74030905
H       11.23484591      -0.65660705      -1.19261222
H       11.94322663      -1.56412299       0.99016204
H       10.25601129      -2.19015643       2.69042281
H        7.10581737      -0.99675621      -0.00398122
C        7.59447807      -1.97516581       2.44732511
C        6.77345920      -2.26626398       3.28136700
Br       5.44594112      -2.73694509       4.62994219
C       -1.79196747      -1.79196747      -1.79196747
C       -3.00283989      -2.27569805      -1.29454421
C       -3.81783095      -3.07061223      -2.10392844
C       -3.42429765      -3.37764746      -3.40701693
C       -2.20550448      -2.89766603      -3.88457917
C       -1.38732601      -2.09517400      -3.08983557
O       -1.78610299      -3.09268300      -5.21278422
C       -1.87404111      -4.35287128      -5.78307464
O       -2.25980856      -5.38389270      -5.25301424
C       -1.35640952      -4.28110321      -7.18273303
C       -1.10655894      -5.47336650      -7.85738011
C       -0.59309802      -5.41182265      -9.14932448
C       -0.35157420      -4.16954810      -9.72540961
C       -0.63761692      -3.02109046      -8.98950810
N       -1.13627637      -3.05399407      -7.72595121
C       -0.35068745      -1.69482885      -9.61096206
O        0.22376058      -1.57781897     -10.68473156
O       -0.81592687      -0.67828565      -8.79027199
C       -0.57312485       0.66391144      -9.14392515
C       -0.70846013       1.14686740     -10.44586256
C       -0.44983287       2.49278937     -10.71181276
C       -0.08496964       3.35360411      -9.67466635
C        0.00999227       2.86522843      -8.37097970
C       -0.23852927       1.52183846      -8.09592458
H       -3.32335472      -2.03370111      -0.28453452
H       -4.76481809      -3.44355798      -1.72173736
H       -4.07278861      -3.98171384      -4.03482826
H       -0.45320081      -1.70970281      -3.48705429
H       -1.29452965      -6.43299185      -7.38364825
H       -0.37519254      -6.32431462      -9.69886866
H        0.05687257      -4.09881349     -10.73040796
H       -1.00163117       0.49263028     -11.26185019
H       -0.53038652       2.86966948     -11.72822455
H        0.11799254       4.39885096      -9.89227556
H       -0.16895801       1.13840566      -7.08249003
C        0.36982214       3.75891463      -7.30072391
C        0.67117965       4.50737682      -6.40438470
Br       1.15844927       5.71757689      -4.95507999
C       -1.79196747       1.79196747       1.79196747
C       -1.49525582       3.14872611       1.92910021
C       -2.30846937       3.96029651       2.72360574
C       -3.41608987       3.41711170       3.37576047
C       -3.69134095       2.05714471       3.23926403
C       -2.89282032       1.23822387       2.44129139
O       -4.83741749       1.45996390       3.79418881
C       -5.17773588       1.71985112       5.11240002
O       -4.56976574       2.41199138       5.91495837
C       -6.41848338       0.95687411       5.44488827
C       -6.79657365       0.85921496       6.78151694
C       -7.93313233       0.12179558       7.09931724
C       -8.65488830      -0.48685981       6.07850343
C       -8.21819429      -0.33386539       4.76388658
N       -7.11072377       0.37796150       4.42753638
C       -8.98849354      -1.01270001       3.68068484
O       -9.91236465      -1.78171746       3.90814276
O       -8.48636251      -0.64361844       2.44174044
C       -9.01247858      -1.23565981       1.27631979
C      -10.37716031      -1.44569907       1.07599404
C      -10.81636642      -2.03801610      -0.10949407
C       -9.89580815      -2.39171161      -1.09806466
C       -8.53737740      -2.14145436      -0.90016404
C       -8.08766774      -1.55775296       0.28270062
H       -0.64088602       3.58371035       1.41699399
H       -2.08392909       5.01897030       2.82721404
H       -4.05271531       4.05951648       3.97709893
H       -3.13684905       0.18642775       2.32668111
H       -6.21180677       1.33587526       7.56348773
H       -8.24845828       0.01551693       8.13440062
H       -9.54111987      -1.07419000       6.30541903
H      -11.10689338      -1.16664031       1.83059801
H      -11.87620046      -2.22602402      -0.26123485
H      -10.24704675      -2.85571550      -2.01589919
H       -7.03193470      -1.35830436       0.43941204
C       -7.59207491      -2.49163572      -1.92845204
C       -6.80038408      -2.78491261      -2.78964325
Br      -5.52028696      -3.25911654      -4.18211659
C        1.79196747      -1.79196747       1.79196747
C        3.07471951      -2.13552514       1.36283750
C        3.88844458      -2.93009752       2.17382952
C        3.42168866      -3.37649219       3.41078119
C        2.13294056      -3.03559193       3.81921720
C        1.31426090      -2.23498465       3.02309002
O        1.62901457      -3.37487286       5.08768278
C        1.77874944      -4.66817613       5.56306146
O        2.29092999      -5.61713038       4.98865512
C        1.14901134      -4.75620491       6.91502950
C        0.94928663      -6.01731718       7.47070175
C        0.33298417      -6.10603072       8.71523025
C       -0.05745218      -4.93986111       9.36412299
C        0.18673281      -3.71423041       8.74725226
N        0.78368088      -3.60063587       7.53190491
C       -0.25948465      -2.47203839       9.44392462
O       -0.92401109      -2.49190380      10.47089723
O        0.18053032      -1.35622593       8.74772827
C       -0.20226165      -0.07201731       9.18338289
C       -0.21066457       0.30776105      10.52588090
C       -0.60263257       1.60187783      10.87336665
C       -0.95701956       2.51645378       9.87950522
C       -0.90791621       2.13459823       8.53827345
C       -0.52548921       0.84297910       8.18108371
H        3.45154376      -1.78432742       0.40571918
H        4.89065698      -3.19403386       1.84542259
H        4.06802544      -3.97909986       4.04220541
H        0.32258568      -1.95887646       3.36849577
H        1.25452550      -6.91560554       6.94103872
H        0.15102335      -7.07612218       9.17123029
H       -0.54777942      -4.98687004      10.33325827
H        0.07226897      -0.38844933      11.31013279
H       -0.63411278       1.89624580      11.91930018
H       -1.26438637       3.52036346      10.16018189
H       -0.48277656       0.54270847       7.13852741
C       -1.25750463       3.08503055       7.51452233
C       -1.55028493       3.88101762       6.65713077
Br      -2.02368592       5.16806139       5.27080114
C       -0.00445707       0.01189536      -1.78238275
H       -0.66409135       0.67374010      -2.43557963
H        0.65740317      -0.63156657      -2.45157240
C       -0.90989263      -0.90692880      -0.91072765
C        0.90977584       0.90977584      -0.90977584
C       -0.00465871       1.77757030       0.00794375
H       -0.66225468       2.44313916      -0.64384735
H        0.64322798       2.43503045       0.67728295
C       -1.78241447       0.00034974      -0.00472694
H       -2.45427497      -0.65498947       0.64260836
H       -2.43311707       0.67328779      -0.65473579
C       -0.91132561       0.90220522       0.91563759
C       -0.01476271      -0.02253852       1.78660255
H       -0.67934791      -0.69751639       2.42135241
H        0.63392994       0.61504881       2.47327442
C        0.01484550      -1.77751727      -0.01636693
H        0.67870853      -2.42144646      -0.68295456
H       -0.62264859      -2.45592969       0.64226336
C        1.78714474       0.01002794       0.00389507
H        2.44202412       0.67113390       0.66197326
H        2.45385902      -0.65136977      -0.64189061
C        0.91606151      -0.90478549       0.90901405
