165
Properties=species:S:1:pos:R:3 pbc="F F F"
C        0.00000000       0.00000000       0.00000000
C        0.88139908       0.88139908      -0.88139908
C        0.64671389       2.25221946      -0.94591251
C        1.45419567       3.05318155      -1.75747264
C        2.49381518       2.48846357      -2.50486778
C        2.72333500       1.11340924      -2.43069377
C        1.91588222       0.30966575      -1.61861430
O        3.21150297       3.37550438      -3.26726654
S        4.46382135       2.91577555      -4.20577767
O        5.54334346       2.44328020      -3.36217966
O        3.95187087       2.11646604      -5.30294385
C        5.05348100       4.42790309      -4.94132819
C        4.68366329       5.66713074      -4.40720469
C        5.15415704       6.83959989      -5.00104714
C        5.98718864       6.77367341      -6.11945757
C        6.34608605       5.52764358      -6.64774777
C        5.88226563       4.34437973      -6.06704491
S        7.44682414       5.44262562      -8.05049129
O        7.72726979       6.81357899      -8.43765045
O        8.51502967       4.53883187      -7.67116528
O        6.53227480       4.73702654      -9.20142629
C        6.95850995       4.58798946     -10.49813766
C        8.10035055       5.17207441     -11.05052628
C        8.40151961       4.98623528     -12.40430709
C        7.56674824       4.20838112     -13.20270101
C        6.43413702       3.60909298     -12.65883831
C        6.13123115       3.80195756     -11.30797231
H       -0.15811355       2.70498077      -0.37277362
H        1.26559822       4.12302185      -1.80465608
H        3.51903374       0.62777027      -2.98917074
H        2.10453706      -0.76019396      -1.57119332
H        4.04694812       5.73907465      -3.52866916
H        4.88070976       7.80869813      -4.58726244
H        6.35697126       7.69694580      -6.56300363
H        6.17243921       3.37506780      -6.46953988
H        8.77596136       5.79182196     -10.46796460
H        9.28627911       5.45951738     -12.82321770
H        5.77998969       2.99754302     -13.27461176
H        5.24141185       3.33610447     -10.89010943
C        7.87338230       4.03031013     -14.59836081
C        8.13018833       3.88117568     -15.76722590
Br       8.54542195       3.64003789     -17.65718187
C       -0.88139908      -0.88139908      -0.88139908
C       -2.03437962      -0.35392223      -1.45654401
C       -2.83921576      -1.16661101      -2.25902308
C       -2.49599495      -2.50393787      -2.48721371
C       -1.33601736      -3.02253555      -1.90888510
C       -0.52876724      -2.21036963      -1.10502540
O       -3.36748437      -3.20072351      -3.28606601
S       -3.14301412      -4.76924554      -3.67311492
O       -1.95835282      -4.89156787      -4.49888263
O       -3.32169572      -5.57178205      -2.47780298
C       -4.51528445      -5.17092753      -4.73650031
C       -5.27405266      -4.15533945      -5.32860661
C       -6.34705697      -4.49214564      -6.15560146
C       -6.65888551      -5.83290584      -6.38852827
C       -5.89519585      -6.84010145      -5.78618010
C       -4.81925726      -6.52053353      -4.95389948
S       -6.26642102      -8.55406154      -6.11945850
O       -7.43490576      -8.56237549      -6.98121798
O       -5.02023877      -9.16207350      -6.54271455
O       -6.67697366      -9.13969650      -4.65405748
C       -7.15814314     -10.41297240      -4.47352152
C       -7.54371164     -11.28799329      -5.49124633
C       -8.06967572     -12.54587458      -5.17651168
C       -8.20044792     -12.93235922      -3.84502324
C       -7.80516548     -12.07394563      -2.82295719
C       -7.28674279     -10.81502099      -3.13939725
H       -2.31499788       0.68227725      -1.28692021
H       -3.73901965      -0.74947297      -2.70478354
H       -1.02511835      -4.05309676      -2.05775965
H        0.37120411      -2.62736605      -0.65937447
H       -5.03869013      -3.10558339      -5.17041842
H       -6.93753274      -3.70980386      -6.62933374
H       -7.49046410      -6.07944572      -7.04701088
H       -4.21682694      -7.30382110      -4.49639885
H       -7.46635822     -11.02665270      -6.54273700
H       -8.37900413     -13.21026911      -5.97974096
H       -7.90054755     -12.36996332      -1.78163361
H       -6.98528372     -10.14615851      -2.33618352
C       -8.75419025     -14.22260047      -3.52526252
C       -9.21794946     -15.30317753      -3.25746291
Br      -9.96780888     -17.05037923      -2.82445360
C       -0.88139908       0.88139908       0.88139908
C       -2.23245727       0.58067503       1.03171356
C       -3.03498151       1.39337701       1.83649134
C       -2.49190288       2.50530823       2.48993542
C       -1.13529222       2.79646086       2.33568493
C       -0.33001428       1.98388047       1.53026752
O       -3.38054072       3.22833279       3.24540037
S       -2.94335421       4.55598036       4.08604000
O       -2.03254724       4.17080631       5.14544977
O       -2.61305402       5.61130779       3.14691893
C       -4.43684314       5.08335575       4.90251340
C       -5.52631999       4.21311918       5.01855955
C       -6.68805727       4.64775047       5.65899634
C       -6.75998957       5.94146164       6.17886841
C       -5.66486911       6.80464955       6.05195874
C       -4.49527375       6.38650481       5.41191171
S       -5.74085760       8.44341926       6.75566420
O       -7.07136910       8.58872125       7.31840888
O       -4.55897637       8.58234609       7.58370436
O       -5.60002780       9.41614675       5.45455309
C       -5.73177887      10.78068537       5.53217282
C       -6.18680837      11.49126426       6.64487862
C       -6.32705580      12.88210946       6.58289673
C       -6.00274428      13.56293135       5.41215475
C       -5.53389008      12.86618833       4.30198990
C       -5.40140535      11.47606996       4.36368571
H       -2.66899058      -0.27838117       0.52903143
H       -4.08968474       1.15419633       1.94939509
H       -0.66586355       3.64632921       2.82378199
H        0.72478597       2.22285917       1.41746321
H       -5.48487018       3.19747873       4.63234302
H       -7.53774699       3.97527844       5.76364490
H       -7.66822292       6.26098865       6.68770912
H       -3.63861942       7.05314374       5.32528373
H       -6.45792641      11.00186766       7.57595385
H       -6.69645359      13.41972112       7.45283948
H       -5.27511402      13.39089761       3.38613284
H       -5.04034111      10.93642119       3.49086346
C       -6.16080562      14.99281127       5.34843636
C       -6.29318199      16.19033570       5.29507222
Br      -6.50722338      18.12663142       5.20878691
C        0.88139908      -0.88139908       0.88139908
C        0.34278485      -2.01157293       1.49048808
C        1.15339708      -2.81215681       2.29929597
C        2.49914493      -2.48618017       2.50182143
C        3.03074496      -1.35282827       1.88386478
C        2.22068494      -0.54989053       1.07358680
O        3.18948448      -3.34446952       3.32031988
S        4.76778007      -3.14001320       3.67758131
O        5.55579332      -3.31852694       2.47448306
O        4.90584976      -1.95802642       4.50740456
C        5.17349202      -4.52053592       4.72868435
C        4.33279649      -5.63744204       4.78776019
C        4.66772733      -6.70660607       5.62047067
C        5.83318146      -6.65944991       6.38768825
C        6.66372452      -5.53401826       6.32373462
C        6.34225637      -4.45418846       5.49724544
S        8.17627989      -5.49281498       7.27084620
O        8.21571433      -6.72502699       8.03775791
O        9.23088997      -5.16115838       6.33297846
O        7.94814967      -4.23697210       8.28560586
C        8.83352408      -3.92381252       9.28730047
C        9.90702479      -4.71581998       9.70010648
C       10.70997875      -4.31020223      10.77188100
C       10.44568590      -3.10833853      11.42380594
C        9.38741888      -2.30380426      11.01084517
C        8.58215076      -2.71436112       9.94464914
H       -0.70106706      -2.27652085       1.34418706
H        0.72702377      -3.69304907       2.77320331
H        4.06956725      -1.05884595       2.00756156
H        2.64702965       0.33093778       0.59944454
H        3.42799152      -5.69890451       4.18779590
H        4.02583580      -7.58469021       5.66614433
H        6.08765990      -7.50728476       7.02197603
H        6.99517566      -3.58479525       5.43707598
H       10.14622181      -5.66344734       9.22607877
H       11.53322046      -4.94481149      11.09098225
H        9.17729085      -1.36272154      11.51213207
H        7.75283924      -2.08434099       9.63044552
C       11.26655980      -2.70092930      12.53456414
C       11.95404169      -2.35972408      13.46482413
Br      13.06564177      -1.80802410      14.96897585
