154
Properties=species:S:1:pos:R:3 pbc="F F F"
C        1.79146511       1.79146511      -1.79146511
C        2.02455452       3.11667307      -1.43152028
C        2.82471105       3.92783765      -2.24364041
C        3.39382137       3.42012635      -3.42161006
C        3.15904723       2.07826861      -3.75836249
C        2.35758874       1.26629561      -2.94992883
C        4.21138412       4.24714839      -4.30366050
C        4.08661300       5.61840423      -4.41952190
S        5.18892443       6.20637452      -5.59115601
C        5.73099153       4.61681944      -5.86869264
N        6.71968032       4.30980222      -6.76919500
C        7.27184274       5.15740459      -7.70089287
O        6.94713456       6.31192260      -7.94674377
C        8.35283318       4.55290769      -8.52672665
C        9.29722755       3.67710311      -7.97357346
C       10.30858243       3.14744796      -8.77786584
C       10.38100896       3.49182710     -10.12875236
C        9.44666820       4.37349224     -10.67150301
C        8.43637708       4.91170911      -9.87793079
N        5.16946640       3.68293606      -5.13727072
H        1.59091457       3.52883952      -0.52394569
H        3.00104212       4.95458920      -1.93285215
H        3.59310254       1.65893626      -4.66440854
H        2.18188496       0.23285021      -3.23630624
H        3.41488021       6.29334168      -3.91011610
H        6.95294858       3.32754133      -6.77520597
H        9.27918115       3.42597368      -6.91609004
H       11.04958024       2.47543476      -8.35060100
H       11.17419021       3.07752199     -10.74667233
H        7.71414529       5.60779751     -10.30011544
C        9.52898079       4.73146650     -12.06386757
C        9.59791758       5.03126994     -13.22997289
Br       9.70938255       5.51602675     -15.11546657
C       -1.79146511      -1.79146511      -1.79146511
C       -2.44299926      -1.23841645      -2.89133215
C       -3.25839101      -2.04350583      -3.69429226
C       -3.42973656      -3.40503592      -3.40078530
C       -2.75258590      -3.94593621      -2.29715621
C       -1.93930922      -3.14295641      -1.49154755
C       -4.29367927      -4.26568294      -4.20283079
C       -5.38874507      -3.81861415      -4.91717990
S       -6.16504544      -5.14069581      -5.68071371
C       -5.01712677      -6.19812686      -5.00124998
N       -5.02314631      -7.55211130      -5.22341993
C       -6.02009321      -8.27855008      -5.83149690
O       -7.10578750      -7.87352863      -6.22648480
C       -5.73655854      -9.73408475      -5.96182423
C       -4.45695044     -10.20726394      -6.28368973
C       -4.23684819     -11.57984901      -6.41719903
C       -5.28924994     -12.47849668      -6.23384179
C       -6.56334493     -12.00209868      -5.92621984
C       -6.79581397     -10.63501765      -5.79518536
N       -4.08443414      -5.63799127      -4.26724776
H       -2.32443260      -0.18544188      -3.13382530
H       -3.74500525      -1.58952813      -4.55395008
H       -2.86494140      -5.00044025      -2.05106569
H       -1.43270017      -3.58203995      -0.63630130
H       -5.78173206      -2.81786160      -5.01874433
H       -4.24579855      -8.02450123      -4.78539610
H       -3.63356509      -9.52142824      -6.46625154
H       -3.24784920     -11.95094288      -6.67682393
H       -5.10950902     -13.54540065      -6.34347485
H       -7.79273982     -10.26384564      -5.56547278
C       -7.64769107     -12.93204492      -5.74457887
C       -8.55583096     -13.71087490      -5.59245456
Br     -10.02421635     -14.97017710      -5.34648241
C       -1.79146511       1.79146511       1.79146511
C       -2.34939961       1.26795956       2.95538870
C       -3.16487479       2.07236669       3.75894763
C       -3.42989016       3.40344929       3.40221833
C       -2.84592561       3.91602040       2.23373232
C       -2.03282406       3.11344906       1.42754005
C       -4.29700715       4.26054898       4.20463687
C       -5.32412539       3.79642978       5.00398396
S       -6.13248934       5.11606755       5.73789807
C       -5.08586976       6.19351387       4.93711998
N       -5.15761973       7.55569836       5.08535945
C       -6.16015124       8.26063370       5.70935525
O       -7.19769929       7.82058348       6.18751815
C       -5.95408211       9.73450680       5.74387861
C       -4.68818896      10.29424166       5.96547350
C       -4.54041289      11.68216082       6.01132253
C       -5.65113288      12.51026269       5.84019285
C       -6.91057113      11.94843739       5.63265493
C       -7.07085710      10.56547522       5.58968466
N       -4.16379301       5.64363105       4.18224913
H       -2.15750483       0.23866537       3.24752958
H       -3.57715423       1.64277754       4.66855170
H       -3.03191209       4.94697003       1.93756522
H       -1.59951665       3.52953087       0.52199390
H       -5.65284153       2.78329419       5.18220228
H       -4.43366291       8.04367575       4.57835723
H       -3.81804279       9.66579366       6.13740841
H       -3.56173312      12.12076008       6.19312280
H       -5.52731959      13.58989284       5.88117209
H       -8.05580887      10.12808655       5.43816283
C       -8.05484109      12.80610243       5.46337134
C       -9.01316717      13.52439691       5.32159633
Br     -10.56269941      14.68581833       5.09235813
C        1.79146511      -1.79146511       1.79146511
C        1.75172478      -3.17603451       1.64498858
C        2.55236363      -3.98507062       2.45875486
C        3.39482985      -3.41516168       3.42556626
C        3.43128506      -2.01763302       3.54676024
C        2.63016797      -1.20701641       2.73662880
C        4.22257319      -4.23211593       4.30750389
C        3.91377928      -5.52464661       4.68611324
S        5.10675292      -6.11657295       5.76312909
C        5.92513913      -4.62728383       5.66408065
N        7.09486972      -4.37017777       6.33363005
C        7.67050736      -5.15177155       7.30786129
O        7.22377029      -6.17789342       7.80413721
C        8.96169929      -4.63354554       7.83722269
C        9.91293715      -4.03663404       6.99833293
C       11.12119969      -3.58186932       7.53082723
C       11.38262375      -3.72427733       8.89468733
C       10.43839135      -4.33027660       9.72299550
C        9.23179270      -4.79192414       9.20230014
N        5.38959835      -3.72971407       4.87036076
H        1.10414847      -3.63640101       0.90315029
H        2.51168168      -5.06189611       2.31490568
H        4.08007875      -1.55060968       4.28575891
H        2.66807899      -0.12750882       2.85545361
H        3.06661617      -6.13696858       4.41475325
H        7.47193863      -3.45670583       6.12705142
H        9.74304857      -3.95005229       5.92814401
H       11.86647878      -3.12722937       6.88190785
H       12.32775099      -3.37063188       9.30000166
H        8.50017653      -5.27411399       9.84776773
C       10.71482943      -4.48137368      11.12811175
C       10.94634633      -4.60791749      12.30489660
Br      11.32068956      -4.81252812      14.20765818
C       -0.00445707       0.01189536      -1.78238275
H       -0.66409135       0.67374010      -2.43557963
H        0.65740317      -0.63156657      -2.45157240
C       -0.90989263      -0.90692880      -0.91072765
C        0.90977584       0.90977584      -0.90977584
C       -0.00465871       1.77757030       0.00794375
H       -0.66225468       2.44313916      -0.64384735
H        0.64322798       2.43503045       0.67728295
C       -1.78241447       0.00034974      -0.00472694
H       -2.45427497      -0.65498947       0.64260836
H       -2.43311707       0.67328779      -0.65473579
C       -0.91132561       0.90220522       0.91563759
C       -0.01476271      -0.02253852       1.78660255
H       -0.67934791      -0.69751639       2.42135241
H        0.63392994       0.61504881       2.47327442
C        0.01484550      -1.77751727      -0.01636693
H        0.67870853      -2.42144646      -0.68295456
H       -0.62264859      -2.45592969       0.64226336
C        1.78714474       0.01002794       0.00389507
H        2.44202412       0.67113390       0.66197326
H        2.45385902      -0.65136977      -0.64189061
C        0.91606151      -0.90478549       0.90901405
