133
Properties=species:S:1:pos:R:3 pbc="F F F"
C        0.00000000       0.00000000       0.00000000
C        0.88156109       0.88156109      -0.88156109
C        1.11465050       2.20676904      -0.52161626
C        1.91480703       3.01793363      -1.33373638
C        2.48391734       2.51022233      -2.51170604
C        2.24914320       1.16836458      -2.84845846
C        1.44768472       0.35639158      -2.04002481
C        3.30148009       3.33724436      -3.39375647
C        3.17670898       4.70850020      -3.50961788
S        4.27902040       5.29647049      -4.68125199
C        4.82108751       3.70691542      -4.95878862
N        5.80977629       3.39989820      -5.85929097
C        6.36193871       4.24750057      -6.79098884
O        6.03723053       5.40201858      -7.03683974
C        7.44292915       3.64300367      -7.61682263
C        8.38732353       2.76719908      -7.06366943
C        9.39867840       2.23754394      -7.86796182
C        9.47110494       2.58192307      -9.21884834
C        8.53676417       3.46358822      -9.76159899
C        7.52647306       4.00180508      -8.96802677
N        4.25956238       2.77303203      -4.22736670
H        0.68101054       2.61893550       0.38595834
H        2.09113809       4.04468518      -1.02294812
H        2.68319852       0.74903224      -3.75450452
H        1.27198094      -0.67705381      -2.32640222
H        2.50497619       5.38343766      -3.00021207
H        6.04304455       2.41763731      -5.86530195
H        8.36927713       2.51606966      -6.00618601
H       10.13967622       1.56553074      -7.44069698
H       10.26428618       2.16761796      -9.83676830
H        6.80424127       4.69789349      -9.39021141
C        8.61907676       3.82156248     -11.15396355
C        8.68801356       4.12136592     -12.32006887
Br       8.79947852       4.60612273     -14.20556254
C       -0.88156109      -0.88156109      -0.88156109
C       -1.52016011      -0.33210185      -1.99077383
C       -2.33556780      -1.13709437      -2.79381487
C       -2.51986411      -2.49490636      -2.49107524
C       -1.85558413      -3.03238780      -1.37799432
C       -1.04232854      -2.22946750      -0.57230506
C       -3.38426260      -3.35506818      -3.29315016
C       -4.47019711      -2.90510784      -4.01952211
S       -5.25087694      -4.22705607      -4.77880988
C       -4.11660792      -5.28802626      -4.08215736
N       -4.13151656      -6.64362353      -4.29382538
C       -5.12936795      -7.36702923      -4.90403095
O       -6.20874625      -6.95668209      -5.31066051
C       -4.85625107      -8.82570335      -5.02080103
C       -3.57792732      -9.31133465      -5.32893007
C       -3.36756373     -10.68659561      -5.45002482
C       -4.42837536     -11.57556161      -5.26793938
C       -5.70105025     -11.08686629      -4.97403484
C       -5.92380378      -9.71703222      -4.85546891
N       -3.18529091      -4.72942610      -3.34524409
H       -1.39145617       0.71798420      -2.24051573
H       -2.81190302      -0.68609955      -3.66076882
H       -1.97811727      -4.08402334      -1.12459466
H       -0.54584860      -2.66575925       0.29027850
H       -4.85452173      -1.90215495      -4.13194925
H       -3.36132914      -7.11859824      -3.84605642
H       -2.74779322      -8.63337938      -5.51036019
H       -2.37951510     -11.06739843      -5.69899041
H       -4.25615919     -12.64465883      -5.36785443
H       -6.91954543      -9.33632416      -4.63647658
C       -6.79403641     -12.00689384      -4.79367254
C       -7.70941232     -12.77741691      -4.64261911
Br      -9.18949775     -14.02328755      -4.39837849
C       -0.88156109       0.88156109       0.88156109
C       -1.41273253       0.36799206       2.06231120
C       -2.22821826       1.17221190       2.86604688
C       -2.51999884       2.49311052       2.49273635
C       -1.96270108       2.99608373       1.30718144
C       -1.14965901       2.19361997       0.50082212
C       -3.38797180       3.34918076       3.29532837
C       -4.39488044       2.88180208       4.11814453
S       -5.21256816       4.20012430       4.84405043
C       -4.19596822       5.28095982       4.00986351
N       -4.28710001       6.64404110       4.13782435
C       -5.29082771       7.34301327       4.76658715
O       -6.31358996       6.89441085       5.26808804
C       -5.10777675       8.82030308       4.77467561
C       -3.84764959       9.40330639       4.96723606
C       -3.72132831      10.79392926       4.98892660
C       -4.84766516      11.60165616       4.82255502
C       -6.10108502      11.01688848       4.64397788
C       -6.23994694       9.63107087       4.62528709
N       -3.27720294       4.73365074       3.24910743
H       -1.19988184      -0.65337192       2.36747778
H       -2.61926187       0.75076604       3.78874349
H       -2.16973457       4.01913128       0.99786942
H       -0.73731355       2.60195672      -0.41794092
H       -4.70455655       1.86660213       4.31746724
H       -3.57906766       7.13517540       3.61174075
H       -2.96499817       8.79141926       5.13511536
H       -2.74703521      11.25068342       5.14818531
H       -4.74045984      12.68361335       4.84459926
H       -7.22005441       9.17591149       4.49638027
C       -7.26140600      11.85367387       4.47952292
C       -8.23317482      12.55448163       4.34179189
Br      -9.80444281      13.68762852       4.11909246
C        0.88156109      -0.88156109       0.88156109
C        1.47917308      -2.01933281       0.34452991
C        2.27965166      -2.83277616       1.15404921
C        2.48483634      -2.51548192       2.50552746
C        1.88608152      -1.35674432       3.02314040
C        1.08348359      -0.54362901       2.21698850
C        3.29254759      -3.35705542       3.38287792
C        3.47036947      -4.71618285       3.20827474
S        4.44023793      -5.34364761       4.47285735
C        4.53651722      -3.78957261       5.16070171
N        5.24066764      -3.52099015       6.30730767
C        5.79055251      -4.44333022       7.16654540
O        5.70288981      -5.66313159       7.11006745
C        6.52764869      -3.85620319       8.31890357
C        7.32898472      -2.71526514       8.17394218
C        8.02102392      -2.20758292       9.27557732
C        7.91775880      -2.83660385      10.51751369
C        7.12932435      -3.97884081      10.65378622
C        6.43828658      -4.49698715       9.56103118
N        3.92023069      -2.83315214       4.50657828
H        1.33058015      -2.28293298      -0.69952542
H        2.74456514      -3.70768857       0.70651768
H        2.03369176      -1.08587142       4.06717209
H        0.62217476       0.34346111       2.64261569
H        3.08116230      -5.36759212       2.43987150
H        5.23400843      -2.54120938       6.55076601
H        7.45100035      -2.23325557       7.20727687
H        8.65203582      -1.32841814       9.16544997
H        8.46316597      -2.43649270      11.36901377
H        5.83172962      -5.39444579       9.66617075
C        7.03090422      -4.62862758      11.93507098
C        6.94847737      -5.17282400      13.00814697
Br       6.81520013      -6.05274358      14.74322008
