117
Properties=species:S:1:pos:R:3 pbc="F F F"
C        0.00000000       0.00000000       0.00000000
C        0.86727519       0.86727519      -0.86727519
C        0.56353186       1.26856323      -2.14767749
C        1.65023179       2.06762823      -2.57875483
C        2.55639177       2.10344712      -1.53567379
O        2.07385930       1.36560038      -0.48551187
C        3.84042677       2.76051638      -1.41634507
O        4.33087129       3.45624790      -2.30116740
N        4.48197495       2.53759972      -0.21661884
C        5.76911945       3.13354197       0.07410166
C        6.28010314       2.78313914       1.46905867
N        6.44008158       1.35611307       1.66828303
C        6.88081242       0.85281871       2.87537937
O        7.06156059       1.57169339       3.85458997
C        7.12119385      -0.57454484       2.87752099
C        7.56908275      -1.41194427       3.88231202
C        7.62262501      -2.71609378       3.33200909
C        7.20558704      -2.59744937       2.02647999
Br       7.07373317      -4.00539787       0.81121465
O        6.90092121      -1.30261824       1.73867300
H       -0.32874157       1.01908906      -2.70469847
H        1.77389895       2.56243839      -3.53304158
H        4.01081949       1.96464815       0.47622401
H        5.67210571       4.22013000      -0.02916106
H        6.47402001       2.78755412      -0.69068202
H        5.58675512       3.15060741       2.23514367
H        7.25152680       3.25844805       1.64270623
H        6.41181149       0.71958362       0.87807363
H        7.82391397      -1.10402136       4.88781846
H        7.92788538      -3.62586482       3.83023217
C       -0.86727519      -0.86727519      -0.86727519
C       -0.49070254      -1.41915403      -2.06991600
C       -1.60795541      -2.15585737      -2.53280208
C       -2.60344996      -2.00640446      -1.58565827
O       -2.14674731      -1.21462237      -0.56360187
C       -3.95176604      -2.53008979      -1.53543238
O       -4.42702848      -3.26304333      -2.39821478
N       -4.67350696      -2.13254449      -0.43014205
C       -6.03428514      -2.57839364      -0.21588098
C       -6.63159069      -2.04692807       1.08433514
N       -6.66669875      -0.59860517       1.13739230
C       -7.16231766       0.05943701       2.24462889
O       -7.50084845      -0.53967742       3.26186186
C       -7.25932116       1.49581116       2.09438198
C       -7.71071388       2.46555289       2.97033453
C       -7.58501131       3.70826502       2.30222415
C       -7.06590001       3.42379187       1.06045046
Br      -6.68629772       4.68679406      -0.25761699
O       -6.86633277       2.08466672       0.92203608
H        0.46842011      -1.30747151      -2.55599457
H       -1.69358158      -2.72961398      -3.44618335
H       -4.21223294      -1.53854726       0.25153656
H       -6.03649100      -3.67416602      -0.21073975
H       -6.62968260      -2.24780011      -1.07477343
H       -6.04988698      -2.39763922       1.94530734
H       -7.65699559      -2.41326353       1.20299050
H       -6.50445333      -0.04863765       0.29976949
H       -8.08431673       2.28296754       3.96927505
H       -7.84226605       4.68669613       2.68378154
C       -0.86727519       0.86727519       0.86727519
C       -2.14177333       1.28164670       0.55635255
C       -2.57778511       2.06977712       1.64905263
C       -1.54027614       2.09324843       2.56198811
O       -0.49061746       1.35428652       2.08006758
C       -1.42474297       2.74190683       3.85063841
O       -2.32594966       3.40133103       4.36100590
N       -0.20489030       2.56358985       4.46771334
C        0.07333139       3.13183508       5.77005607
C        1.46906543       2.78315413       6.28009491
N        2.52293826       3.25000818       5.40084169
C        3.85024056       3.01308729       5.69540503
O        4.19272413       2.32099042       6.65039772
C        4.78703954       3.65690164       4.79926593
C        6.16954349       3.65650479       4.78786515
C        6.56803039       4.45485035       3.68770217
C        5.40744580       4.89468829       3.09441520
Br       5.32219324       5.99082048       1.58849340
O        4.32063605       4.41894881       3.76131722
H       -2.69206364       1.04708753      -0.34410521
H       -3.52985894       2.56949104       1.77002894
H        0.48900552       1.99297166       3.99527749
H       -0.68563814       2.76539282       6.47036581
H       -0.04492921       4.21852657       5.68880036
H        1.57919357       1.69703801       6.38437442
H        1.63034538       3.23105670       7.26655730
H        2.31909374       3.91284898       4.65956624
H        6.80207371       3.13792151       5.49622634
H        7.57754310       4.67808466       3.37124682
C        0.86727519      -0.86727519       0.86727519
C        2.02285026      -1.49452499       0.46239733
C        2.50863701      -2.19455526       1.59342260
C        1.61708067      -1.95608472       2.62234730
O        0.60967393      -1.14084270       2.17445493
C        1.60657836      -2.41615681       3.99455304
O        2.48217019      -3.12859735       4.47751905
N        0.51891810      -1.99037876       4.72689665
C        0.36062747      -2.34659698       6.12133531
C       -0.89378783      -1.74178609       6.74618535
N       -2.11205559      -2.15942845       6.08053876
C       -3.34389986      -1.70093270       6.50121893
O       -3.45792711      -0.85365581       7.38293531
C       -4.47164222      -2.31112728       5.82964297
C       -5.83074247      -2.11509702       5.99047191
C       -6.47821478      -2.97915562       5.07358130
C       -5.47791256      -3.65032056       4.40924968
Br      -5.74528735      -4.92624149       3.07616650
O       -4.25646518      -3.25507944       4.86101570
H        2.46404378      -1.45472126      -0.52371908
H        3.39855293      -2.80588922       1.66493677
H       -0.15875559      -1.38996804       4.26803118
H        1.25131576      -2.00779027       6.66229074
H        0.32990876      -3.44062447       6.18172291
H       -0.85187344      -0.64661699       6.70747532
H       -0.96729560      -2.03582233       7.79874189
H       -2.10005805      -2.93161512       5.42176442
H       -6.28632741      -1.42755415       6.69084741
H       -7.54238038      -3.09385155       4.92031721
