125
Properties=species:S:1:pos:R:3 pbc="F F F"
C        0.00000000       0.00000000       0.00000000
C        0.86727519       0.86727519      -0.86727519
C        0.56353186       1.26856323      -2.14767749
C        1.65023179       2.06762823      -2.57875483
C        2.55639177       2.10344712      -1.53567379
O        2.07385930       1.36560038      -0.48551187
C        3.84042677       2.76051638      -1.41634507
O        4.33087129       3.45624790      -2.30116740
N        4.48197495       2.53759972      -0.21661884
C        5.76911945       3.13354197       0.07410166
C        6.28010314       2.78313914       1.46905867
N        6.44008158       1.35611307       1.66828303
C        6.88081242       0.85281871       2.87537937
O        7.06156059       1.57169339       3.85458997
C        7.12119385      -0.57454484       2.87752099
C        7.56908275      -1.41194427       3.88231202
C        7.62262501      -2.71609378       3.33200909
C        7.20558704      -2.59744937       2.02647999
O        6.90092121      -1.30261824       1.73867300
H       -0.32874157       1.01908906      -2.70469847
H        1.77389895       2.56243839      -3.53304158
H        4.01081949       1.96464815       0.47622401
H        5.67210571       4.22013000      -0.02916106
H        6.47402001       2.78755412      -0.69068202
H        5.58675512       3.15060741       2.23514367
H        7.25152680       3.25844805       1.64270623
H        6.41181149       0.71958362       0.87807363
H        7.82391397      -1.10402136       4.88781846
H        7.92788538      -3.62586482       3.83023217
C        7.10375613      -3.68480976       1.08792905
C        7.01847274      -4.59547408       0.30189264
Br       6.88057672      -6.06794127      -0.96906174
C       -0.86727519      -0.86727519      -0.86727519
C       -0.66177664      -1.11271848      -2.20527746
C       -1.70742615      -1.97624125      -2.61294747
C       -2.49296431      -2.20384999      -1.49869839
O       -1.97548153      -1.52187188      -0.42761814
C       -3.69019102      -2.99900266      -1.32809454
O       -4.20229603      -3.65564271      -2.23034785
N       -4.22177724      -2.95767008      -0.05674618
C       -5.41002938      -3.70873045       0.29020007
C       -5.80404629      -3.54595937       1.75582205
N       -6.07588539      -2.16833954       2.11631331
C       -6.43422137      -1.82923138       3.40520099
O       -6.44393090      -2.65182631       4.31709320
C       -6.80616930      -0.44110321       3.57814449
C       -7.22400455       0.24708785       4.70209024
C       -7.45674472       1.58454409       4.29767849
C       -7.16824356       1.63308529       2.95350058
O       -6.77476762       0.40970870       2.50542894
H        0.14040688      -0.72068777      -2.81476507
H       -1.88246792      -2.38932238      -3.59758862
H       -3.73716776      -2.40655852       0.64448265
H       -5.22256675      -4.76482652       0.06599650
H       -6.21992221      -3.36747374      -0.36486019
H       -5.00343802      -3.90980677       2.41102593
H       -6.70318618      -4.13378474       1.96970230
H       -6.18978368      -1.46087700       1.39733920
H       -7.34296159      -0.17877141       5.68965887
H       -7.79276598       2.40681763       4.91415996
C       -7.26708503       2.80851637       2.12755134
C       -7.34986476       3.79293989       1.43581885
Br      -7.48371259       5.38466948       0.31734592
C       -0.86727519       0.86727519       0.86727519
C       -1.17978072       2.18341142       0.61658044
C       -2.01557655       2.59993979       1.68109852
C       -2.16064844       1.51272614       2.52213810
O       -1.45462268       0.44960469       2.02074419
C       -2.89637597       1.36160315       3.75930910
O       -3.56991051       2.25704218       4.26133390
N       -2.77679499       0.11774192       4.34165659
C       -3.46113280      -0.20793304       5.57536000
C       -3.21758891      -1.64664224       6.02323694
N       -1.81521539      -1.93646146       6.24915768
C       -1.40493989      -3.19290443       6.64621630
O       -2.18548348      -4.13733517       6.73051570
C        0.00389006      -3.29067755       6.96369563
C        0.75785126      -4.36515930       7.39783702
C        2.08483979      -3.89490811       7.55427005
C        2.06200396      -2.56387240       7.20753404
O        0.80460953      -2.18548747       6.84972698
H       -0.84908873       2.77299638      -0.22703915
H       -2.46383047       3.57304808       1.83250037
H       -2.21627769      -0.58028267       3.86324862
H       -4.53302913      -0.03688967       5.42525730
H       -3.11520253       0.49591694       6.34113667
H       -3.58567042      -2.35117897       5.26772742
H       -3.75702988      -1.84533884       6.95557758
H       -1.13589576      -1.18400395       6.30142968
H        0.38123869      -5.36360411       7.57691694
H        2.94686368      -4.46081757       7.87946964
C        3.20308284      -1.68558351       7.21968367
C        4.15873640      -0.95001656       7.22985898
Br       5.70394739       0.23933298       7.24631160
C        0.86727519      -0.86727519       0.86727519
C        2.24286722      -0.88371592       0.85318944
C        2.63581104      -1.83695285       1.82385097
C        1.47474428      -2.34978210       2.37098631
O        0.38965707      -1.75313652       1.78217796
C        1.27036178      -3.35071950       3.39620694
O        2.18792889      -3.91406552       3.98629218
N       -0.05368052      -3.63040643       3.65946759
C       -0.43585988      -4.59611229       4.66830735
C       -1.94933616      -4.72487692       4.81864285
N       -2.60388695      -5.13871274       3.59308582
C       -3.97402185      -5.29457508       3.53769853
O       -4.70248417      -4.99968707       4.48146111
C       -4.46480015      -5.84274511       2.29118306
C       -5.75101784      -6.14313954       1.88270476
C       -5.65069375      -6.65823185       0.56698404
C       -4.31184984      -6.64218620       0.25132133
O       -3.58245548      -6.15170173       1.29038372
H        2.88630138      -0.28487760       0.22386698
H        3.64045623      -2.12816633       2.10075636
H       -0.76079657      -3.11516071       3.14487949
H        0.01207251      -4.28921812       5.62010614
H        0.00503171      -5.55960386       4.38762057
H       -2.38754548      -3.76676028       5.12300406
H       -2.18768557      -5.46177212       5.59318206
H       -2.06007058      -5.49833792       2.81505414
H       -6.64564397      -6.00277888       2.47493923
H       -6.45779333      -6.99723298      -0.06765127
C       -3.75103472      -7.08199272      -0.99994068
C       -3.28135205      -7.45033068      -2.04787261
Br      -2.52191491      -8.04590202      -3.74228992
