117
Properties=species:S:1:pos:R:3 pbc="F F F"
C        0.00000000       0.00000000       0.00000000
C        0.88186707       0.88186707      -0.88186707
C        0.33316669       1.99924863      -1.50915262
C        1.13850295       2.80968265      -2.31002711
C        2.48843377       2.49721787      -2.49023401
C        3.03412246       1.36420095      -1.87084140
C        2.22700220       0.56198091      -1.05349662
C        4.46167712       0.98090629      -2.03067589
O        5.02376198       0.28382101      -1.18909611
N        5.09955569       1.41678304      -3.17373595
N        6.40781311       0.97960432      -3.39203635
C        7.09542109       1.48830905      -4.47455872
O        6.58457085       2.25142486      -5.28923348
C        8.52232806       1.08425659      -4.59324819
C        9.40246383       1.94294183      -5.26591860
C       10.75252530       1.60975028      -5.38986443
C       11.22636515       0.41320925      -4.85235846
C       10.34561909      -0.44954982      -4.20108614
Br      10.98773722      -2.08067859      -3.49151946
C        8.99505529      -0.12593638      -4.06992467
H       -0.71622422       2.25019380      -1.37476071
H        0.71485348       3.68997803      -2.78859719
H        3.09835808       3.16294118      -3.09496483
H        2.65141877      -0.30981571      -0.55954845
H        4.64458400       1.87908576      -3.95772380
H        6.84605029       0.49414720      -2.61084298
H        9.03836943       2.87762132      -5.68957150
H       11.43327984       2.28272277      -5.90594951
H       12.27900789       0.15966768      -4.95212966
H        8.32300492      -0.82760353      -3.58443978
C       -0.88186707      -0.88186707      -0.88186707
C       -0.31945698      -1.55999434      -1.96211663
C       -1.12204487      -2.37106098      -2.76510686
C       -2.48688406      -2.49598102      -2.49302057
C       -3.05303989      -1.80068717      -1.41543775
C       -2.24128467      -1.00053088      -0.60066418
C       -4.49900388      -1.89225169      -1.08200373
O       -4.89855691      -1.65341210       0.05528991
N       -5.35605332      -2.22252883      -2.11149252
N       -6.72636837      -2.21069199      -1.84239341
C       -7.59045657      -2.63874739      -2.82908491
O       -7.21227153      -2.96144066      -3.95151700
C       -9.02710626      -2.72130651      -2.45142007
C       -9.84283884      -3.63281255      -3.13567288
C      -11.19398825      -3.75272381      -2.80542796
C      -11.73787571      -2.95545019      -1.79860696
C      -10.92977231      -2.03478662      -1.13259648
Br     -11.67550352      -0.94097665       0.21790208
C       -9.57809207      -1.90776540      -1.45318611
H        0.74158402      -1.46880613      -2.18150818
H       -0.68156916      -2.91203024      -3.59982930
H       -3.08138040      -3.15792559      -3.11695809
H       -2.67521007      -0.47131974       0.24537830
H       -5.09215408      -2.29793521      -3.09130427
H       -6.98166505      -2.10792324      -0.86145218
H       -9.42474828      -4.25670715      -3.92410681
H      -11.82135776      -4.46678425      -3.33381010
H      -12.79088573      -3.05385934      -1.54606016
H       -8.97595072      -1.16302685      -0.94086361
C       -0.88186707       0.88186707       0.88186707
C       -1.77545099       0.29181260       1.77430436
C       -2.57736606       1.09557469       2.58527195
C       -2.49176127       2.48742548       2.49669890
C       -1.60349752       3.07834050       1.58732679
C       -0.78731927       2.26864099       0.78651946
C       -1.47360206       4.55271914       1.44693811
O       -0.44518600       5.05357956       0.99791354
N       -2.56622986       5.31195442       1.81189040
N       -2.50156943       6.68904706       1.58883728
C       -3.54089705       7.47470536       2.04268645
O       -4.54725440       7.00880213       2.56917266
C       -3.36737906       8.94421128       1.88824250
C       -4.04200838       9.79033656       2.77897932
C       -3.89797603      11.17535152       2.67881247
C       -3.08878763      11.72076771       1.68237751
C       -2.43431783      10.87851006       0.78432752
Br      -1.35432328      11.62246867      -0.57821386
C       -2.56969251       9.49316286       0.87618821
H       -1.84897767      -0.79036231       1.85011492
H       -3.26486088       0.63629888       3.29226895
H       -3.10665948       3.08795815       3.16164646
H       -0.08628728       2.72461205       0.09025219
H       -3.48026079       4.94045463       2.06067814
H       -1.58863287       7.04829311       1.31411448
H       -4.67686390       9.37083965       3.55785869
H       -4.41727616      11.82770995       3.37696601
H       -2.98065074      12.80027883       1.60987566
H       -2.07366212       8.85911076       0.14706830
C        0.88186707      -0.88186707       0.88186707
C        1.60344135      -1.92835537       0.30977124
C        2.41451282      -2.73112252       1.11257736
C        2.49614016      -2.49277719       2.48696831
C        1.75738503      -1.44950588       3.06227390
C        0.95713906      -0.63442969       2.25091098
C        1.80189345      -1.15292193       4.51844392
O        1.52203498      -0.03349283       4.94115130
N        2.13719765      -2.19612956       5.35674747
N        2.08210186      -1.96451041       6.73284151
C        2.51377510      -2.96257188       7.58194188
O        2.87646526      -4.06552330       7.18324063
C        2.54833568      -2.62177377       9.02972339
C        3.45622577      -3.30360338       9.85149511
C        3.53163818      -3.00690287      11.21359897
C        2.69347026      -2.03642183      11.76204077
C        1.77672095      -1.37326810      10.94716637
Br       0.62764939      -0.07259175      11.69833695
C        1.69395702      -1.66049266       9.58459390
H        1.54611749      -2.12135503      -0.75874224
H        2.98919696      -3.53915221       0.66507953
H        3.15883135      -3.11492159       3.08251116
H        0.39407134       0.18539772       2.69247790
H        2.24592485      -3.16614342       5.06932530
H        1.94622726      -0.99385469       7.01095852
H        4.11193914      -4.06380256       9.42982054
H        4.24296593      -3.53307740      11.84590878
H        2.75732626      -1.80988398      12.82359500
H        0.95174342      -1.15185324       8.97624452
