146
Properties=species:S:1:pos:R:3 pbc="F F F"
C        1.79177109       1.79177109      -1.79177109
C        1.24307072       2.90915266      -2.41905665
C        2.04840698       3.71958667      -3.21993113
C        3.39833780       3.40712190      -3.40013803
C        3.94402648       2.27410498      -2.78074542
C        3.13690622       1.47188494      -1.96340065
C        5.37158115       1.89081032      -2.94057992
O        5.93366601       1.19372504      -2.09900014
N        6.00945971       2.32668706      -4.08363997
N        7.31771714       1.88950834      -4.30194037
C        8.00532512       2.39821307      -5.38446275
O        7.49447488       3.16132888      -6.19913750
C        9.43223209       1.99416062      -5.50315222
C       10.31236786       2.85284585      -6.17582263
C       11.66242932       2.51965431      -6.29976845
C       12.13626917       1.32311327      -5.76226248
C       11.25552311       0.46035421      -5.11099017
C        9.90495932       0.78396765      -4.97982869
H        0.19367981       3.16009782      -2.28466473
H        1.62475751       4.59988205      -3.69850122
H        4.00826210       4.07284520      -4.00486886
H        3.56132280       0.60008832      -1.46945247
H        5.55448803       2.78898979      -4.86762782
H        7.75595431       1.40405122      -3.52074701
H        9.94827345       3.78752534      -6.59947553
H       12.34318386       3.19262679      -6.81585353
H       13.18891192       1.06957171      -5.86203368
H        9.23290895       0.08230050      -4.49434381
C       11.74446303      -0.78166643      -4.57069164
C       12.15395022      -1.82185871      -4.11819163
Br      12.81605636      -3.50376166      -3.38653738
C       -1.79177109      -1.79177109      -1.79177109
C       -1.35305848      -3.06438199      -2.15383955
C       -2.15987653      -3.87395051      -2.95409773
C       -3.39954288      -3.40720856      -3.39884628
C       -3.83159490      -2.12108157      -3.04620042
C       -3.02674242      -1.31704242      -2.22840697
C       -5.13812024      -1.57080720      -3.49404393
O       -5.69024223      -0.67077279      -2.86537616
N       -5.67062153      -2.09559277      -4.65357245
N       -6.84346975      -1.51941397      -5.14628213
C       -7.44521007      -2.09812959      -6.24466128
O       -6.95788645      -3.05084079      -6.84621402
C       -8.75349757      -1.52084933      -6.65519802
C       -9.65954511      -2.34555048      -7.33594075
C      -10.90388613      -1.84920837      -7.72875759
C      -11.24362918      -0.52492341      -7.45309234
C      -10.33326811       0.30010747      -6.79370684
C       -9.08786928      -0.18575984      -6.39512654
H       -0.38991233      -3.43600933      -1.81252070
H       -1.82488785      -4.87271532      -3.22553760
H       -4.01948508      -4.07071681      -3.99577428
H       -3.36607816      -0.32390402      -1.94088140
H       -5.19215533      -2.74173249      -5.27721782
H       -7.30135884      -0.85352319      -4.52587052
H       -9.39951712      -3.37978674      -7.55597046
H      -11.60674468      -2.49498313      -8.24993638
H      -12.21443594      -0.14454272      -7.76153864
H       -8.38438384       0.48416233      -5.90933175
C      -10.68057863       1.67138064      -6.52429026
C      -10.97145119       2.81982192      -6.29865387
Br     -11.44176752       4.67675434      -5.93381891
C       -1.79177109       1.79177109       1.79177109
C       -3.05636021       2.17071568       1.34420413
C       -3.86599281       2.97100176       2.15093021
C       -3.40721465       3.39892229       3.39946078
C       -2.12895234       3.02933081       3.84059374
C       -1.32504005       2.21154668       3.03560507
C       -1.58728188       3.45886259       5.15682690
O       -0.69897185       2.81592317       5.71149616
N       -2.10591722       4.61825373       5.69561580
N       -1.53658040       5.09370202       6.87888343
C       -2.11042636       6.19180479       7.48576978
O       -3.05231601       6.80751803       6.99510722
C       -1.54213607       6.58374859       8.80366025
C       -2.36905531       7.26370733       9.70827370
C       -1.88123561       7.63936210      10.96125437
C       -0.56314939       7.34727125      11.31122429
C        0.26435180       6.68870672      10.40251256
C       -0.21304018       6.30719565       9.14851983
H       -3.42175785       1.84255992       0.37412459
H       -4.85867908       3.25559609       1.80886560
H       -4.07094442       3.99628413       4.01874761
H       -0.33818051       1.91088130       3.38180177
H       -2.74113622       5.25293337       5.21703605
H       -0.88137670       4.46226200       7.33711385
H       -3.39845653       7.49651258       9.44030521
H       -2.52879815       8.15999303      11.66287301
H       -0.18939760       7.64239581      12.28872389
H        0.45902075       5.82171221       8.44686179
C        1.62940800       6.40232419      10.76057206
C        2.77264257       6.16247881      11.06044689
Br       4.62115617       5.77466913      11.54531914
C        1.79177109      -1.79177109       1.79177109
C        3.17239352      -1.59960921       1.79927729
C        3.97910275      -2.39990055       2.60892147
C        3.40603674      -3.39686804       3.40269295
C        2.01892169      -3.59840133       3.38155387
C        1.20978498      -2.78191300       2.58049382
C        1.35538552      -4.64639151       4.20119435
O        0.16994788      -4.54704254       4.50940076
N        2.12343076      -5.73416546       4.56219053
N        1.49030909      -6.77703399       5.24182276
C        2.26369072      -7.82312546       5.70118476
O        3.46770710      -7.90943944       5.47779472
C        1.56143545      -8.84614080       6.52196867
C        2.30863243      -9.57527473       7.45712918
C        1.68812306     -10.53618740       8.25754163
C        0.32190594     -10.78021470       8.11952429
C       -0.41616787     -10.06834475       7.17469061
C        0.19315671      -9.10475362       6.37084532
H        3.62720155      -0.82633408       1.18490673
H        5.05521659      -2.24147138       2.62645280
H        4.05552019      -3.98479678       4.04565919
H        0.13124948      -2.92631846       2.57329564
H        3.06313082      -5.92578992       4.22218489
H        0.53996380      -6.58561769       5.55517104
H        3.37602394      -9.39092804       7.56832233
H        2.27039833     -11.09409990       8.98716596
H       -0.15538920     -11.52980130       8.74610520
H       -0.39657809      -8.58430658       5.62182476
C       -1.82345936     -10.33343865       7.02350897
C       -3.00206598     -10.55545479       6.89689434
Br      -4.90777321     -10.91443611       6.69216919
C       -0.00445707       0.01189536      -1.78238275
H       -0.66409135       0.67374010      -2.43557963
H        0.65740317      -0.63156657      -2.45157240
C       -0.90989263      -0.90692880      -0.91072765
C        0.90977584       0.90977584      -0.90977584
C       -0.00465871       1.77757030       0.00794375
H       -0.66225468       2.44313916      -0.64384735
H        0.64322798       2.43503045       0.67728295
C       -1.78241447       0.00034974      -0.00472694
H       -2.45427497      -0.65498947       0.64260836
H       -2.43311707       0.67328779      -0.65473579
C       -0.91132561       0.90220522       0.91563759
C       -0.01476271      -0.02253852       1.78660255
H       -0.67934791      -0.69751639       2.42135241
H        0.63392994       0.61504881       2.47327442
C        0.01484550      -1.77751727      -0.01636693
H        0.67870853      -2.42144646      -0.68295456
H       -0.62264859      -2.45592969       0.64226336
C        1.78714474       0.01002794       0.00389507
H        2.44202412       0.67113390       0.66197326
H        2.45385902      -0.65136977      -0.64189061
C        0.91606151      -0.90478549       0.90901405
