137
Properties=species:S:1:pos:R:3 pbc="F F F"
C        0.00000000       0.00000000       0.00000000
C        0.88151725       0.88151725      -0.88151725
C        0.71086668       2.26292660      -0.87053993
C        1.51646786       3.06959772      -1.68243746
C        2.49859800       2.50629021      -2.51318149
C        2.65393626       1.11012530      -2.50393688
C        1.85027760       0.30046333      -1.69375831
C        3.32222682       3.35759378      -3.36584914
O        4.25436854       2.72948870      -4.14085429
N        4.94137199       3.65628845      -4.90439320
C        4.41499000       4.85266287      -4.58640319
C        3.39730658       4.70782268      -3.60967903
C        4.87455853       6.09449258      -5.20821799
O        4.39917774       7.19013677      -4.92456695
N        5.87980982       5.92524112      -6.13428394
C        6.51255666       7.05141876      -6.76815535
C        7.57099128       6.61451255      -7.73802280
C        7.23547550       6.21236366      -9.03888732
C        8.23071170       5.79013260      -9.92530501
C        9.56274262       5.75941032      -9.51092737
Br      10.90527338       5.18702034     -10.71195176
C        9.91026044       6.14447519      -8.22029079
C        8.91256693       6.56472762      -7.34720296
F        9.25774137       6.92555070      -6.10333697
H       -0.04418060       2.72328537      -0.23820806
H        1.35995577       4.14533510      -1.65526959
H        3.40285130       0.63066528      -3.13207776
H        1.98983491      -0.77731407      -1.70839404
H        2.80482489       5.49577299      -3.16893809
H        6.26410912       4.99076095      -6.23748918
H        6.92961987       7.70325760      -5.99018926
H        5.74261156       7.63948951      -7.28373220
H        6.19787033       6.22726660      -9.36835638
H        7.95717027       5.48586554     -10.93317143
H       10.93988503       6.12163788      -7.87929174
C       -0.88151725      -0.88151725      -0.88151725
C       -1.26202535      -0.43758992      -2.14471795
C       -2.07385054      -1.24459831      -2.95005419
C       -2.51435879      -2.50080096      -2.50290995
C       -2.11404395      -2.92803687      -1.22591762
C       -1.30267764      -2.12391287      -0.41790873
C       -3.37255812      -3.32631254      -3.34679908
O       -3.75382590      -4.53404405      -2.83684157
N       -4.57498096      -5.19220325      -3.73486943
C       -4.68980857      -4.37052578      -4.79372171
C       -3.93594852      -3.18656124      -4.59229853
C       -5.50441451      -4.71344910      -5.95940548
O       -5.61536718      -3.96921729      -6.92929699
N       -6.13192480      -5.93624082      -5.87116926
C       -6.89300317      -6.46930434      -6.96982326
C       -7.48208111      -7.80786413      -6.63358138
C       -8.67523723      -7.90791559      -5.90357366
C       -9.20207140      -9.16227573      -5.58180218
C       -8.53281131     -10.31996623      -5.98030277
Br      -9.24775369     -12.01397825      -5.54251354
C       -7.34247920     -10.23735232      -6.69519491
C       -6.82822503      -8.98450981      -7.01176266
F       -5.67629842      -8.91665714      -7.69367348
H       -0.93639119       0.53205757      -2.51297921
H       -2.35735806      -0.87178315      -3.93141925
H       -2.43203468      -3.89468045      -0.83887923
H       -1.01024024      -2.47789211       0.56721747
H       -3.84286432      -2.35353008      -5.27314157
H       -5.91053078      -6.51523452      -5.06659395
H       -6.24169917      -6.53056955      -7.85079801
H       -7.68773607      -5.75578435      -7.22231284
H       -9.20055228      -7.00966860      -5.58327242
H      -10.13112742      -9.22546937      -5.01961045
H       -6.80584241     -11.12669387      -7.00827836
C       -0.88151725       0.88151725       0.88151725
C       -0.85331716       0.72649265       2.26452341
C       -1.66520205       1.53203602       3.07126496
C       -2.51309442       2.49852257       2.50645271
C       -2.52106701       2.63829553       1.10863589
C       -1.71095580       1.83464185       0.29890159
C       -3.36545171       3.32213971       3.35807831
O       -4.15777006       4.23853559       2.72840587
N       -4.91864158       4.92737841       3.65603365
C       -4.58153075       4.41799559       4.85452972
C       -3.59512697       3.40964116       4.71004016
C       -5.19465486       4.88453351       6.09808072
O       -4.89356687       4.42463593       7.19567866
N       -6.13374877       5.87749845       5.92808766
C       -6.76215088       6.51576329       7.05421661
C       -7.74860359       7.55841952       6.61650351
C       -9.05000336       7.20401938       6.23270374
C       -9.95214569       8.18457448       5.80942915
C       -9.55308970       9.52068850       5.75930212
Br     -10.77535652      10.84332493       5.18556402
C       -8.26224049       9.88678435       6.12600159
C       -7.37342074       8.90360232       6.54747444
F       -6.12957874       9.26656497       6.89048533
H       -0.20749856      -0.01629231       2.72610659
H       -1.62435993       1.38790157       4.14829895
H       -3.16283814       3.37478137       0.62797484
H       -1.73909991       1.96193967      -0.78012470
H       -3.13906656       2.83094972       5.49951970
H       -6.25160620       6.25013226       4.99062080
H       -5.98173103       6.94870353       7.69263217
H       -7.26251585       5.74679043       7.65652699
H       -9.36763663       6.16305835       6.26279833
H      -10.96019345       7.89648563       5.51952815
H       -7.93307714      10.91980466       6.08793284
C        0.88151725      -0.88151725       0.88151725
C        1.14596433      -2.19481333       0.50355555
C        1.95045053      -3.00331730       1.31473522
C        2.49759987      -2.51014359       2.51032623
C        2.21913259      -1.18055824       2.86830760
C        1.41514096      -0.36936622       2.05999206
C        3.32299638      -3.36819139       3.35448196
O        3.81697256      -2.80958560       4.49815336
N        4.55933680      -3.74162192       5.20109493
C        4.50877838      -4.87185972       4.47341796
C        3.74695401      -4.67387417       3.29398010
C        5.16894055      -6.10420600       4.90412254
O        5.12708830      -7.14005264       4.24674051
N        5.83541180      -5.99915308       6.10477000
C        6.61783818      -7.08859264       6.62569996
C        7.24214684      -6.73714413       7.94423565
C        6.51211244      -6.83724253       9.13737151
C        7.10151766      -6.48846354      10.35616812
C        8.41889112      -6.02947410      10.38471509
Br       9.21190813      -5.55798554      12.03435180
C        9.15249507      -5.91393833       9.20859303
C        8.55716717      -6.26549990       8.00183043
F        9.27054027      -6.14229199       6.87379678
H        0.73217005      -2.60112712      -0.41598433
H        2.13879345      -4.02575822       0.99600879
H        2.62240979      -0.75670767       3.78647688
H        1.21336381       0.65489163       2.36244271
H        3.53923243      -5.40419811       2.52610544
H        5.88327064      -5.07836024       6.53072837
H        7.37956745      -7.35966027       5.88383900
H        5.96652450      -7.96523886       6.73406992
H        5.48165278      -7.18845985       9.12338067
H        6.52555758      -6.57588144      11.27476823
H       10.17580000      -5.55370462       9.21131002
