138
Properties=species:S:1:pos:R:3 pbc="F F F"
C        1.79126674       1.79126674      -1.79126674
C        1.29982547       3.00065205      -2.27406837
C        2.11138123       3.80584908      -3.07913836
C        3.41490203       3.40829514      -3.40309077
C        3.89408523       2.19098376      -2.91328120
C        3.08384104       1.38253390      -2.10794414
N        4.17059005       4.27561764      -4.20855415
C        5.46982340       4.11334596      -4.63929254
O        6.24655145       3.19026578      -4.43734668
C        5.95857323       5.31113694      -5.48167288
O        5.17583334       6.22309827      -5.70995227
N        7.27660168       5.17066639      -5.85868371
C        8.06627123       6.06600637      -6.59696481
C        7.59888970       7.28459075      -7.09398190
C        8.45183429       8.12910285      -7.81395361
C        9.77416793       7.75480095      -8.03775090
Br      10.92552576       8.89851467      -9.00551841
C       10.25225520       6.54195238      -7.55040920
C        9.39799546       5.70014568      -6.83229616
H        0.29200265       3.32666077      -2.03103811
H        1.70947871       4.74777716      -3.44490817
H        4.89613424       1.83850235      -3.13776960
H        3.47541878       0.43925286      -1.73553045
H        3.73354792       5.14289871      -4.51532824
H        7.71141336       4.30741596      -5.53715100
H        6.57485164       7.61025130      -6.93879216
H        8.07084028       9.07445173      -8.19190428
H       11.28294730       6.24245316      -7.72060949
H        9.79064704       4.75751889      -6.45817036
C       -1.79126674      -1.79126674      -1.79126674
C       -3.06315226      -1.35757525      -2.15381839
C       -3.86614611      -2.16709530      -2.96312725
C       -3.40249265      -3.40954057      -3.41425472
C       -2.12475801      -3.83289306      -3.04069912
C       -1.31906107      -3.02519256      -2.23006545
N       -4.26410299      -4.15995059      -4.23070827
C       -4.02642026      -5.38950462      -4.80653702
O       -3.03740416      -6.10530832      -4.73145143
C       -5.21389415      -5.86872154      -5.66876737
O       -6.21603372      -5.16930575      -5.72354441
N       -4.94669808      -7.06965642      -6.28959727
C       -5.76840259      -7.79128728      -7.16955253
C       -7.04801849      -7.38029847      -7.54914539
C       -7.80346360      -8.15094576      -8.44048139
C       -7.27906177      -9.33458803      -8.95306999
Br      -8.29836488     -10.37099127     -10.16020268
C       -6.00625720      -9.75727635      -8.58108322
C       -5.25426840      -8.98600776      -7.69016114
H       -3.43870610      -0.39553181      -1.81546362
H       -4.85601430      -1.80948912      -3.23666063
H       -1.72133942      -4.78787646      -3.36319031
H       -0.32715960      -3.37184535      -1.95119714
H       -5.17702316      -3.76507869      -4.44967302
H       -4.02687699      -7.45219719      -6.07690613
H       -7.48958544      -6.46335718      -7.17095248
H       -8.79700306      -7.81447952      -8.72571372
H       -5.58961697     -10.67973093      -8.97666205
H       -4.26124257      -9.33209096      -7.41300276
C       -1.79126674       1.79126674       1.79126674
C       -1.46533795       1.97770375       3.13150420
C       -2.27416720       2.78765579       3.93454567
C       -3.40830919       3.41489583       3.40308292
C       -3.72445381       3.21702115       2.05687524
C       -2.91725980       2.40622247       1.25083681
N       -4.16435749       4.21971410       4.27069026
C       -5.29813892       4.94670867       3.97761431
O       -5.90573670       5.04760542       2.92082180
C       -5.81696273       5.73523892       5.19918140
O       -5.22900070       5.61475144       6.26513174
N       -6.91479765       6.50652558       4.88462855
C       -7.63179124       7.37493937       5.72251180
C       -7.32748869       7.57994922       7.07002444
C       -8.08462629       8.47147176       7.83879269
C       -9.14794267       9.15906219       7.25971492
Br     -10.16571505      10.36602616       8.29781762
C       -9.46381376       8.96218279       5.91862023
C       -8.70639778       8.07066251       5.15337701
H       -0.58788238       1.50123950       3.56057966
H       -2.00149406       2.92202907       4.97864092
H       -4.59344557       3.67976023       1.59920039
H       -3.17940035       2.26557745       0.20522430
H       -3.85179134       4.30360303       5.23638050
H       -7.21379765       6.42817561       3.91400706
H       -6.50575671       7.06251269       7.55562569
H       -7.83211565       8.61936168       8.88571896
H      -10.29200971       9.49497022       5.45903002
H       -8.96768439       7.93175723       4.10689467
C        1.79126674      -1.79126674       1.79126674
C        3.12998339      -1.98261229       1.46195020
C        3.93417407      -2.78885518       2.27333941
C        3.40631686      -3.40445797       3.41551311
C        2.06051264      -3.20528107       3.73255649
C        1.25291251      -2.39952293       2.92188363
N        4.27952273      -4.19120642       4.18403270
C        4.00035588      -4.87330800       5.34879802
O        2.94709981      -4.96279053       5.96427357
C        5.24240711      -5.59572368       5.91325226
O        6.29064123      -5.53241703       5.28582562
N        4.97161861      -6.22575658       7.10857659
C        5.85441556      -6.94920697       7.92561988
C        7.20095636      -7.15735353       7.61915246
C        8.02126559      -7.88252248       8.49110267
C        7.49465575      -8.40076748       9.67129655
Br       8.60483647      -9.37509252      10.84962984
C        6.15380685      -8.20309477       9.98771516
C        5.33666885      -7.47907002       9.11469843
H        3.55755796      -1.51099231       0.58115125
H        4.97790472      -2.92440521       1.99985411
H        1.60472380      -3.66193288       4.60574951
H        0.20824299      -2.25583431       3.18612478
H        5.24537678      -4.27456666       3.87183143
H        4.00730830      -6.12703667       7.42163536
H        7.64685092      -6.76807427       6.70896991
H        9.06732436      -8.03321233       8.23665961
H        5.73503891      -8.60412429      10.90684675
H        4.29215361      -7.33381573       9.38036694
C       -0.00445707       0.01189536      -1.78238275
H       -0.66409135       0.67374010      -2.43557963
H        0.65740317      -0.63156657      -2.45157240
C       -0.90989263      -0.90692880      -0.91072765
C        0.90977584       0.90977584      -0.90977584
C       -0.00465871       1.77757030       0.00794375
H       -0.66225468       2.44313916      -0.64384735
H        0.64322798       2.43503045       0.67728295
C       -1.78241447       0.00034974      -0.00472694
H       -2.45427497      -0.65498947       0.64260836
H       -2.43311707       0.67328779      -0.65473579
C       -0.91132561       0.90220522       0.91563759
C       -0.01476271      -0.02253852       1.78660255
H       -0.67934791      -0.69751639       2.42135241
H        0.63392994       0.61504881       2.47327442
C        0.01484550      -1.77751727      -0.01636693
H        0.67870853      -2.42144646      -0.68295456
H       -0.62264859      -2.45592969       0.64226336
C        1.78714474       0.01002794       0.00389507
H        2.44202412       0.67113390       0.66197326
H        2.45385902      -0.65136977      -0.64189061
C        0.91606151      -0.90478549       0.90901405
