137
Properties=species:S:1:pos:R:3 pbc="F F F"
C        0.00000000       0.00000000       0.00000000
C        0.86706242       0.86706242      -0.86706242
C        1.94156505       0.43309778      -1.64136527
N        2.51358712       1.44143258      -2.30548588
N        1.79061931       2.54301874      -1.95278745
C        0.78252630       2.21755747      -1.06802315
C        2.11069097       3.82677842      -2.48411119
C        1.36910863       4.96327247      -2.13611822
C        1.71391533       6.21451029      -2.66318720
C        2.79085181       6.34603720      -3.54903443
C        3.53699771       5.21313278      -3.89185409
C        3.19557180       3.96014191      -3.36576310
C        3.12157183       7.70819038      -4.05924452
O        2.82916317       8.69854642      -3.39862682
N        3.73376285       7.77390835      -5.29089477
C        4.16041677       9.03781466      -5.85069899
C        4.20539349       8.90530282      -7.33892898
S        5.66619756       8.43461737      -8.11435820
C        4.94617118       8.50258766      -9.66517684
C        3.62090893       8.87238771      -9.60487586
C        3.20669337       9.10084725      -8.26774293
H        2.33909343      -0.56682774      -1.75811678
H        0.10387458       2.95155910      -0.66399979
H        0.52274749       4.91965431      -1.45741625
H        1.13559951       7.09266123      -2.37875264
H        4.40658189       5.28228181      -4.53841546
H        3.79714910       3.09546112      -3.64431021
H        3.93446860       6.93541996      -5.81352785
H        5.14787623       9.26671397      -5.43348347
H        3.48437146       9.84171200      -5.54124498
H        5.52839401       8.26782719     -10.54618221
H        2.99155463       8.96994861     -10.48115919
C        1.85152609       9.49022893      -7.97533302
C        0.71657350       9.81633608      -7.73043972
Br      -1.11854886      10.34362376      -7.33446797
C       -0.86706242      -0.86706242      -0.86706242
C       -0.50457231      -1.41545272      -2.09600307
N       -1.49153293      -2.14480666      -2.62416599
N       -2.50571459      -2.06520903      -1.71550188
C       -2.14957427      -1.28293954      -0.63559312
C       -3.74122300      -2.74045044      -1.93990714
C       -4.78609147      -2.67330902      -1.00909883
C       -5.99413135      -3.33608864      -1.26139282
C       -6.17084539      -4.08041008      -2.43466797
C       -5.13088205      -4.14243188      -3.36867065
C       -3.92151607      -3.47989027      -3.12007047
C       -7.48755542      -4.74562965      -2.65582165
O       -8.50006389      -4.29016062      -2.13611189
N       -7.48230456      -5.88021062      -3.43605079
C       -8.71099210      -6.56610416      -3.77183415
C       -8.39021998      -7.99683404      -4.06257127
S       -8.05108838      -8.48929172      -5.67479303
C       -7.80052819     -10.11391610      -5.19949139
C       -7.96662572     -10.28807482      -3.84347197
C       -8.30440633      -9.06916473      -3.20171250
H        0.42878361      -1.32297322      -2.63619287
H       -2.81750630      -1.09061533       0.18868816
H       -4.70338603      -2.11466292      -0.08176910
H       -6.80273561      -3.26969461      -0.53458317
H       -5.24643419      -4.67045035      -4.31039463
H       -3.13046391      -3.53949928      -3.86695724
H       -6.62272646      -6.23615432      -3.82453563
H       -9.14259425      -6.06150119      -4.64397822
H       -9.43518045      -6.47678373      -2.95536426
H       -7.54310985     -10.86291977      -5.93637378
H       -7.84871615     -11.24476341      -3.34918288
C       -8.51594645      -9.02306007      -1.77808153
C       -8.69311130      -8.98444741      -0.58579059
Br      -8.97957187      -8.92201401       1.34204301
C       -0.86706242       0.86706242       0.86706242
C       -2.22066055       1.13040987       0.66495767
N       -2.71578215       1.93531638       1.60940705
N       -1.66044032       2.19111325       2.43487193
C       -0.51695367       1.55422148       1.99693177
C       -1.81634986       3.02297755       3.58225317
C       -0.74169104       3.28476591       4.44204238
C       -0.92015118       4.11637462       5.55508701
C       -2.16986901       4.68590159       5.83015284
C       -3.24234116       4.43129796       4.96834547
C       -3.06720866       3.60076453       3.85350363
C       -2.29103532       5.57975312       7.01821828
O       -1.30849310       6.18260065       7.43524265
N       -3.53318305       5.65810717       7.60727574
C       -3.78062146       6.54601102       8.72229793
C       -4.93222013       6.00828771       9.50911745
S       -6.53179989       6.52965269       9.15372055
C       -7.20124436       5.53669105      10.37600026
C       -6.23603208       4.81722693      11.04491349
C       -4.93977694       5.09489208      10.54061453
H       -2.87480591       0.77735865      -0.12178209
H        0.42778916       1.63734567       2.50987696
H        0.24745186       2.86746230       4.27980761
H       -0.07528773       4.31992340       6.21180226
H       -4.21373992       4.89146181       5.12207744
H       -3.91739151       3.42417586       3.19535307
H       -4.31014361       5.12575908       7.24751373
H       -3.99794655       7.53872259       8.31140452
H       -2.88309622       6.64203244       9.34219978
H       -8.26968495       5.52755100      10.54516746
H       -6.46056254       4.13025674      11.85184316
C       -3.78150531       4.44201454      11.09356819
C       -2.81145282       3.89522960      11.55666688
Br      -1.24295999       3.01112459      12.30545829
C        0.86706242      -0.86706242       0.86706242
C        0.42324068      -1.70117003       1.89161739
N        1.43464224      -2.34798407       2.47787927
N        2.54844429      -1.92293774       1.81504347
C        2.22693108      -1.01112998       0.83004586
C        3.83929820      -2.41602367       2.16625871
C        4.98887651      -1.99354042       1.48608240
C        6.24611411      -2.48466996       1.86082874
C        6.37134274      -3.40800369       2.90657701
C        5.22495703      -3.82536764       3.59165992
C        3.96587628      -3.33542184       3.22017869
C        7.73918065      -3.87736309       3.27246298
O        8.71239466      -3.16689421       3.04704754
N        7.83113898      -5.12950462       3.83792237
C        9.09914610      -5.65616906       4.29361526
C        9.02600382      -7.14905160       4.27456988
S        8.53037523      -8.00154208       5.68325582
C        8.69003790      -9.51771095       4.90618683
C        9.10888921      -9.38871168       3.60057162
C        9.29853041      -8.02779364       3.24895952
H       -0.58592581      -1.87332937       2.24297891
H        2.96989747      -0.55111099       0.19842501
H        4.95082751      -1.28300011       0.66599042
H        7.13394733      -2.14248576       1.33058029
H        5.28626672      -4.50376586       4.43724659
H        3.09033572      -3.67215064       3.77443407
H        7.00750521      -5.69248506       3.98342614
H        9.27176451      -5.27104903       5.30526011
H        9.91566445      -5.28792496       3.66373903
H        8.46882624     -10.43036252       5.44321464
H        9.26691521     -10.23398115       2.94176608
C        9.72860580      -7.66506541       1.92341684
C       10.08879393      -7.36128052       0.81327485
Br      10.67118769      -6.87008604      -0.98173087
