153
Properties=species:S:1:pos:R:3 pbc="F F F"
C        0.00000000       0.00000000       0.00000000
C        0.88146344       0.88146344      -0.88146344
C        1.80948415       0.29714018      -1.73889719
C        2.61902375       1.10858555      -2.53997583
C        2.49575149       2.50340402      -2.49830290
C        1.55945354       3.07501997      -1.63361472
C        0.75555456       2.26650642      -0.82244525
N        3.35279605       3.25269494      -3.32236801
C        3.35602565       4.61933119      -3.53037301
O        2.54918101       5.43718899      -3.10490047
C        4.50639936       5.08207673      -4.37610392
C        4.66370310       6.43401356      -4.66474056
C        5.80048998       6.84107379      -5.36823800
C        6.74054562       5.88545670      -5.76541640
C        6.48597818       4.55298576      -5.44193316
N        5.38808814       4.12101397      -4.76872671
C        8.03488094       6.21035020      -6.42380202
O        8.93615317       5.38693091      -6.32540851
N        8.10087849       7.41982434      -7.09506390
C        9.25478795       8.01095699      -7.66010199
C       10.53632980       7.45970849      -7.57419877
C       11.63888890       8.12393015      -8.12399260
C       11.46380270       9.34695265      -8.76265631
Br      12.95562346      10.25178011      -9.48753897
C       10.19426699       9.90846641      -8.86328699
C        9.09384253       9.24050689      -8.31421299
H        1.91261681      -0.78327115      -1.79171979
H        3.33914397       0.63513413      -3.20250656
H        1.44295395       4.15154008      -1.55339332
H        0.04049071       2.73243053      -0.14956189
H        4.08073522       2.75279800      -3.82908012
H        3.93420086       7.16052009      -4.31712294
H        5.94952200       7.90234300      -5.54001264
H        7.19096188       3.76726353      -5.70946653
H        7.24337100       7.93842132      -7.22449466
H       10.72159651       6.51310758      -7.07640672
H       12.62548286       7.67541384      -8.03904380
H       10.05058912      10.86427810      -9.36039724
H        8.11430381       9.70310967      -8.40195191
C       -0.88146344      -0.88146344      -0.88146344
C       -1.17762257      -0.48522947      -2.18266948
C       -1.99040957      -1.29275124      -2.98442432
C       -2.49831967      -2.50339840      -2.49574034
C       -2.19167990      -2.88800620      -1.18840213
C       -1.38787556      -2.07702451      -0.37960615
N       -3.31835748      -3.25403891      -3.35546261
C       -3.85075891      -4.51196636      -3.14300458
O       -3.63512421      -5.25950519      -2.19664106
C       -4.79197638      -4.94271330      -4.22989033
C       -5.42673473      -6.17866095      -4.15706154
C       -6.37309481      -6.50433523      -5.13237173
C       -6.65140433      -5.58855241      -6.15146197
C       -5.95181987      -4.38211712      -6.14696011
N       -5.01931069      -4.03704053      -5.22147760
C       -7.71005211      -5.77931366      -7.17966739
O       -8.15425891      -4.77406305      -7.72017062
N       -8.09557533      -7.08454197      -7.43564943
C       -9.17564772      -7.50308097      -8.24711824
C      -10.05895210      -6.62704036      -8.88424460
C      -11.13097913      -7.11625593      -9.63957659
C      -11.32544124      -8.48813528      -9.75983515
Br     -12.78403301      -9.14708875     -10.76382079
C      -10.45261219      -9.37586608      -9.13754212
C       -9.38059328      -8.88315114      -8.38481799
H       -0.78485368       0.44585926      -2.58207103
H       -2.21239142      -0.96693259      -3.99746065
H       -2.57919041      -3.80778421      -0.76091273
H       -1.16994181      -2.39049001       0.63794869
H       -3.58029713      -2.83616791      -4.24614830
H       -5.21555753      -6.85944479      -3.33684157
H       -6.90894859      -7.44359753      -5.03933152
H       -6.13944777      -3.62317209      -6.90507208
H       -7.54847703      -7.82985127      -7.02795868
H       -9.95200157      -5.54946416      -8.80964508
H      -11.80597677      -6.41307323     -10.12089051
H      -10.59930921     -10.44910509      -9.22685016
H       -8.71690540      -9.59756530      -7.90489470
C       -0.88146344       0.88146344       0.88146344
C       -1.48292219       2.01685116       0.34574817
C       -2.28454031       2.82467219       1.15837264
C       -2.49954248       2.49507620       2.50283974
C       -1.89004829       1.35222824       3.02581171
C       -1.07827675       0.54775951       2.21846997
N       -3.30607860       3.36213167       3.25964872
C       -3.74126922       3.20247206       4.56198858
O       -3.58303764       2.22493101       5.28330183
C       -4.47752865       4.40067729       5.08637407
C       -4.96644815       4.40705841       6.38895066
C       -5.55656253       5.57585742       6.87738182
C       -5.64441280       6.69839238       6.04861353
C       -5.13895873       6.58845187       4.75348649
N       -4.56847808       5.46633970       4.24301103
C       -6.15369946       8.02497399       6.49035971
O       -5.78670871       9.00606545       5.85571844
N       -7.00450149       8.02824773       7.58301752
C       -7.48855874       9.16343206       8.27385612
C       -7.12496425      10.47779044       7.96748236
C       -7.61407084      11.54972580       8.72301501
C       -8.47038527      11.31051048       9.79251592
Br      -9.11467712      12.75676934      10.82349609
C       -8.84834146      10.00887461      10.10880432
C       -8.35898968       8.93968470       9.34988803
H       -1.33529644       2.28310736      -0.69733835
H       -2.74509824       3.70812996       0.72355646
H       -2.01224627       1.06883884       4.06680223
H       -0.60561233      -0.33144269       2.64831348
H       -3.60912930       4.23048860       2.82299545
H       -4.85730614       3.53141975       7.02311800
H       -5.88324303       5.59642614       7.91220847
H       -5.16351236       7.43513488       4.06904470
H       -7.34343879       7.13932174       7.92352646
H       -6.45158434      10.71083746       7.14868901
H       -7.31170488      12.56187822       8.46635741
H       -9.51659341       9.81490892      10.94376213
H       -8.66545238       7.93284053       9.62107248
C        0.88146344      -0.88146344       0.88146344
C        0.96742602      -2.24795401       0.63014149
C        1.77123405      -3.05249760       1.44385348
C        2.50175561      -2.49467318       2.50102962
C        2.40602604      -1.12182879       2.74023339
C        1.59395260      -0.31560110       1.93495253
N        3.27659829      -3.36843251       3.28282820
C        4.15109138      -3.04972492       4.30491355
O        4.49160969      -1.93062696       4.66903383
C        4.70206747      -4.25781495       5.00469759
C        5.58457334      -4.10803877       6.06984512
C        5.99787706      -5.24890986       6.76301486
C        5.52143225      -6.50241773       6.36756873
C        4.65191692      -6.55069435       5.27828582
N        4.23751112      -5.46429516       4.57602254
C        5.80669374      -7.77082764       7.09151178
O        5.01741879      -8.69443550       6.93663830
N        6.94783376      -7.79212418       7.87580879
C        7.34141936      -8.81680754       8.76762002
C        6.58404251      -9.96350980       9.02268475
C        7.01963540     -10.91651059       9.95066566
C        8.21766288     -10.72507380      10.63067500
Br       8.79510463     -12.00273405      11.89710386
C        8.98830314      -9.59233893      10.38537832
C        8.55066887      -8.64258255       9.45531099
H        0.41549031      -2.69679086      -0.19121571
H        1.82529110      -4.11768936       1.23380420
H        2.93837147      -0.64935541       3.56016048
H        1.52616999       0.74858889       2.14490202
H        3.19066074      -4.36716468       3.10478792
H        5.91516963      -3.11955045       6.37712381
H        6.63907526      -5.12315094       7.62965144
H        4.23462408      -7.49668745       4.93638041
H        7.58959801      -7.01518700       7.80150198
H        5.63839428     -10.14939971       8.52331681
H        6.40907559     -11.79710322      10.13376170
H        9.92513006      -9.43624211      10.91389229
H        9.16854958      -7.76461944       9.28619637
