141
Properties=species:S:1:pos:R:3 pbc="F F F"
C        0.00000000       0.00000000       0.00000000
C        0.88192116       0.88192116      -0.88192116
C        1.70089824       0.29373897      -1.84578259
C        2.50773407       1.09995958      -2.64831354
C        2.48046816       2.48720665      -2.48513257
C        1.67783216       3.07693542      -1.51105953
C        0.86797479       2.26734307      -0.71055665
O        3.36963984       3.21166405      -3.30418692
C        3.09195919       4.48734309      -3.76795908
O        2.08975189       5.15260348      -3.55936548
C        4.23041894       4.96093239      -4.60773442
C        4.21839212       6.27796908      -5.07796694
C        5.25869184       6.75334877      -5.88693206
C        6.31238780       5.90785158      -6.26141875
C        6.32864206       4.59949014      -5.77602098
C        5.30068286       4.12583815      -4.95247314
N        7.30496604       6.43167342      -7.11032914
C        8.25000623       5.71387399      -7.83046528
O        8.33093154       4.49091410      -7.85895643
C        9.13465545       6.54961228      -8.61511493
C       10.02144488       6.22389297      -9.62108965
C       10.64845519       7.42814125     -10.02124335
C       10.11285615       8.41766898      -9.23023904
Br      10.59798625      10.21761495      -9.28742862
O        9.17460600       7.90269500      -8.38721813
H        1.72029468      -0.78493096      -1.97613023
H        3.15455263       0.64929872      -3.39510426
H        1.67175670       4.15168183      -1.35759666
H        0.23492713       2.72578896       0.04462439
H        3.39406884       6.94207553      -4.82456106
H        5.21626856       7.77851553      -6.24333238
H        7.14061220       3.91509121      -6.00892479
H        5.35643116       3.09853836      -4.60275901
H        7.28611438       7.42728878      -7.30163618
H       10.18894271       5.22664886     -10.00898116
H       11.40478764       7.55251959     -10.78377638
C       -0.88192116      -0.88192116      -0.88192116
C       -1.60930312      -1.92409202      -0.30702466
C       -2.41183560      -2.73030213      -1.11386946
C       -2.48613631      -2.48028657      -2.48638449
C       -1.74673077      -1.45215453      -3.06694181
C       -0.94604710      -0.64380857      -2.25601884
O       -3.27960103      -3.38116578      -3.22472400
C       -3.98277335      -3.00635574      -4.35813227
O       -4.03122133      -1.89950232      -4.87099720
C       -4.71963194      -4.18948080      -4.88997302
C       -5.39835041      -4.06915925      -6.10681848
C       -6.11933118      -5.15112675      -6.62851474
C       -6.19565912      -6.36121616      -5.92478285
C       -5.50297763      -6.48192443      -4.71925113
C       -4.76630348      -5.40934185      -4.20334882
N       -6.97040257      -7.39636485      -6.48020119
C       -7.42060458      -8.53956387      -5.83417705
O       -7.23445561      -8.79639070      -4.64995576
C       -8.19955720      -9.41457904      -6.68524642
C       -9.00190023     -10.49275138      -6.37177589
C       -9.50308242     -11.00048208      -7.59427529
C       -8.97074524     -10.20668904      -8.58332990
Br      -9.25592216     -10.43482899     -10.41227867
O       -8.19552394      -9.22428628      -8.04470890
H       -1.55516639      -2.11730699       0.76097943
H       -2.97450282      -3.54903821      -0.67541458
H       -1.77577200      -1.26866857      -4.13659462
H       -0.37453066       0.16397870      -2.70553974
H       -5.37768928      -3.12866082      -6.65435533
H       -6.64292614      -5.02360864      -7.57158169
H       -5.50201780      -7.40984433      -4.15276606
H       -4.24699458      -5.55127402      -3.25945993
H       -7.32463928      -7.26869925      -7.42170082
H       -9.19163861     -10.86162829      -5.37130584
H      -10.16082653     -11.84730340      -7.73295367
C       -0.88192116       0.88192116       0.88192116
C       -0.70893208       0.86554445       2.26594326
C       -1.51679022       1.66908563       3.07013134
C       -2.48343242       2.48806178       2.48131319
C       -2.67169152       2.49316848       1.10096710
C       -1.85889386       1.68976008       0.29722057
O       -3.28551422       3.22105592       3.37892067
C       -3.80241333       4.47001352       3.07483451
O       -3.65392313       5.10504350       2.04275422
C       -4.59455231       4.96756263       4.23697080
C       -5.31308079       6.15971309       4.10153427
C       -6.05163992       6.67050511       5.17682764
C       -6.05808531       6.01012288       6.41344994
C       -5.35323101       4.81214222       6.53877995
C       -4.62886918       4.28860231       5.46152266
N       -6.78419166       6.59571188       7.46706507
C       -6.68905750       6.28797166       8.81731634
O       -5.91304438       5.46965597       9.29810173
C       -7.57423753       7.07314585       9.65199928
C       -7.60816391       7.23634093      11.02192266
C       -8.69789871       8.09374831      11.30619278
C       -9.27021614       8.39756157      10.09298647
Br     -10.77973237       9.46702596       9.85627148
O       -8.58408322       7.80367711       9.07675880
H        0.04504225       0.23166490       2.72487131
H       -1.39429113       1.65565436       4.14901012
H       -3.43956710       3.10450623       0.63696186
H       -1.99853631       1.69813362      -0.78057823
H       -5.29663619       6.70463433       3.15943491
H       -6.59223236       7.60302815       5.04285596
H       -5.35471434       4.24414162       7.46577225
H       -4.09344807       3.35470818       5.60957228
H       -7.37561552       7.39007915       7.24934468
H       -6.92109768       6.77977190      11.72370316
H       -9.02836130       8.43544656      12.27727575
C        0.88192116      -0.88192116       0.88192116
C        0.95343425      -2.25277366       0.63421188
C        1.75678033      -3.05720478       1.44202208
C        2.48792735      -2.48107108       2.48380896
C        2.40456737      -1.11535519       2.74590455
C        1.60164396      -0.31107679       1.93315375
O        3.22655427      -3.38209643       3.27684011
C        4.42667874      -3.04120976       3.87937286
O        5.00916513      -1.96975694       3.82279878
C        4.94612771      -4.21803393       4.63492411
C        6.08836330      -4.05977530       5.42618954
C        6.61896304      -5.14626997       6.13373966
C        6.03043831      -6.41493909       6.03628073
C        4.88108246      -6.56421124       5.25885948
C        4.33689997      -5.47724897       4.56484521
N        6.63504471      -7.47509855       6.73682533
C        6.40998764      -8.83234785       6.55201000
O        5.66313119      -9.31156278       5.70610810
C        7.19260158      -9.67255530       7.43422578
C        7.43122633     -11.03145303       7.40374814
C        8.24362959     -11.33066103       8.52354917
C        8.44692581     -10.13733128       9.17650708
Br       9.41862765      -9.92958454      10.75481762
O        7.83402474      -9.11715913       8.51333526
H        0.38802614      -2.70154499      -0.17807718
H        1.81120014      -4.12655418       1.26120128
H        2.94646794      -0.66352162       3.57104564
H        1.54132260       0.75595137       2.13072047
H        6.57903268      -3.09036131       5.49131145
H        7.51200289      -4.99331445       6.73279913
H        4.36735027      -7.51895455       5.17832339
H        3.44301452      -5.64460652       3.97010748
H        7.38286840      -7.24895402       7.38321693
H        7.05277702     -11.71661053       6.65518519
H        8.62165206     -12.29918229       8.82024926
