162
Properties=species:S:1:pos:R:3 pbc="F F F"
C        1.79182518       1.79182518      -1.79182518
C        2.61080226       1.20364299      -2.75568661
C        3.41763809       2.00986360      -3.55821757
C        3.39037219       3.39711067      -3.39503660
C        2.58773618       3.98683944      -2.42096355
C        1.77787881       3.17724710      -1.62046068
O        4.27954387       4.12156807      -4.21409094
C        4.00186321       5.39724711      -4.67786311
O        2.99965591       6.06250750      -4.46926950
C        5.14032297       5.87083641      -5.51763844
C        5.12829615       7.18787311      -5.98787096
C        6.16859586       7.66325279      -6.79683609
C        7.22229182       6.81775561      -7.17132277
C        7.23854608       5.50939417      -6.68592500
C        6.21058689       5.03574218      -5.86237716
N        8.21487006       7.34157745      -8.02023316
C        9.15991026       6.62377801      -8.74036930
O        9.24083556       5.40081813      -8.76886045
C       10.04455948       7.45951630      -9.52501896
C       10.93134891       7.13379699     -10.53099368
C       11.55835922       8.33804527     -10.93114738
C       11.02276018       9.32757301     -10.14014306
Br      11.50789027      11.12751897     -10.19733265
O       10.08451002       8.81259902      -9.29712216
H        2.63019871       0.12497307      -2.88603426
H        4.06445665       1.55920274      -4.30500829
H        2.58166073       5.06158586      -2.26750068
H        1.14483116       3.63569298      -0.86527964
H        4.30397287       7.85197956      -5.73446508
H        6.12617259       8.68841956      -7.15323640
H        8.05051623       4.82499523      -6.91882882
H        6.26633518       4.00844238      -5.51266303
H        8.19601841       8.33719280      -8.21154021
H       11.09884674       6.13655289     -10.91888519
H       12.31469166       8.46242361     -11.69368041
C       -1.79182518      -1.79182518      -1.79182518
C       -1.84077149      -3.16686132      -1.56249905
C       -2.64416543      -3.97123015      -2.37032368
C       -3.39786863      -3.39103371      -3.39361711
C       -3.33720918      -2.02076611      -3.63756388
C       -2.53416606      -1.21662462      -2.82479591
O       -4.13500469      -4.29127079      -4.18892740
C       -5.34812912      -3.95899509      -4.76984922
O       -5.94460089      -2.89675196      -4.69008008
C       -5.86176708      -5.13240764      -5.53462311
C       -7.01713587      -4.97928383      -6.30762052
C       -7.54250153      -6.06320922      -7.02297400
C       -6.93507868      -7.32468648      -6.95160503
C       -5.77291118      -7.46853269      -6.19242137
C       -5.23416279      -6.38376009      -5.49078335
N       -7.53470388      -8.38342272      -7.65855407
C       -7.28821411      -9.73980225      -7.49604121
O       -6.52291405     -10.22015387      -6.66744622
C       -8.07143165     -10.57861356      -8.37904953
C       -8.29068601     -11.94103317      -8.36442039
C       -9.11455892     -12.23606780      -9.47692515
C       -9.34361377     -11.03675988     -10.11010260
Br     -10.34026757     -10.82081023     -11.67166409
O       -8.73566651     -10.01736654      -9.44119815
H       -1.25778142      -3.61886637      -0.76455824
H       -2.68115697      -5.04365130      -2.20385941
H       -3.89692012      -1.56518927      -4.44863788
H       -2.49147796      -0.14620823      -3.00811759
H       -7.52210580      -4.01607287      -6.35223883
H       -8.44593961      -5.91454625      -7.60734269
H       -5.24486959      -8.41696498      -6.13250570
H       -4.32973996      -6.54675025      -4.91095038
H       -8.29463926      -8.15887945      -8.29123271
H       -7.89222994     -12.63112811      -7.63092677
H       -9.48322457     -13.20560396      -9.78196715
C       -1.79182518       1.79182518       1.79182518
C       -2.26759462       1.29658889       3.00594835
C       -3.07507657       2.10186670       3.80877600
C       -3.39103911       3.39787190       3.39360845
C       -2.93311956       3.88931110       2.17310852
C       -2.12161688       3.08181341       1.37215629
O       -4.25590766       4.11360504       4.24569018
C       -4.19280292       5.48961568       4.39455483
O       -3.42135421       6.26205889       3.84801982
C       -5.23601631       5.92446488       5.36831663
C       -5.43530992       7.29309566       5.57563464
C       -6.39059021       7.74061298       6.49748155
C       -7.14050640       6.82362388       7.24723992
C       -6.94997617       5.45911169       7.02477739
C       -6.00955419       5.00771569       6.09143634
N       -8.05373659       7.33519749       8.18774659
C       -8.66540536       6.63805317       9.22059903
O       -8.46233750       5.45918838       9.48898826
C       -9.55726926       7.45337497      10.01845050
C      -10.14935765       7.20647081      11.24031112
C      -10.94767193       8.33489855      11.54498139
C      -10.80198301       9.20154080      10.48695244
Br     -11.66112171      10.84877398      10.32284620
O       -9.94167028       8.68985964       9.56270127
H       -2.01955577       0.28997399       3.33167628
H       -3.45659304       1.72076393       4.75131071
H       -3.19723804       4.88453874       1.82897048
H       -1.75656285       3.46596858       0.42327235
H       -4.84202685       8.02192391       5.02646674
H       -6.51582782       8.80979937       6.64220135
H       -7.53060392       4.70849672       7.55523964
H       -5.89537146       3.93556436       5.95650478
H       -8.22497263       8.33463491       8.18514388
H      -10.01446187       6.30877953      11.83104342
H      -11.56059935       8.48776584      12.42243049
C        1.79182518      -1.79182518       1.79182518
C        1.86030805      -3.16327055       1.54655327
C        2.66366047      -3.96769330       2.35436549
C        3.39783648      -3.39098283       3.39370014
C        3.31752413      -2.02462493       3.65339012
C        2.51458483      -1.22036493       2.84063682
O        4.13626149      -4.29190580       4.18703560
C        5.33814945      -3.95214291       4.78668107
O        5.92253292      -2.88189189       4.72700812
C        5.85681085      -5.12852292       5.54346406
C        7.00082222      -4.97092568       6.33229231
C        7.53071339      -6.05708725       7.04088410
C        6.93963370      -7.32483083       6.94690567
C        5.78854487      -7.47340236       6.17191802
C        5.24509725      -6.38672240       5.47688658
N        7.54356743      -8.38480915       7.64830409
C        7.31562456      -9.74197759       7.46645542
O        6.56628783     -10.22137357       6.62285274
C        8.09831747     -10.58199843       8.34877884
C        8.33434109     -11.94139585       8.32040264
C        9.14828115     -12.24003036       9.43924036
C        9.35503423     -11.04586398      10.08957804
Br      10.33008077     -10.83698612      11.66567500
O        8.74280111     -10.02578734       9.42564276
H        1.29253903      -3.61250034       0.73616666
H        2.71573979      -5.03747939       2.17544849
H        3.86181552      -1.57226477       4.47666697
H        2.45663104      -0.15285767       3.03631506
H        7.49342622      -4.00231322       6.39467807
H        8.42515959      -5.90468557       7.63798338
H        5.27287669      -8.42732979       6.09413379
H        4.34978660      -6.55351638       4.88413761
H        8.29302370      -8.15885786       8.29286986
H        7.95320730     -12.62724227       7.57383525
H        9.52504603     -13.20870174       9.73704791
C       -0.00445707       0.01189536      -1.78238275
H       -0.66409135       0.67374010      -2.43557963
H        0.65740317      -0.63156657      -2.45157240
C       -0.90989263      -0.90692880      -0.91072765
C        0.90977584       0.90977584      -0.90977584
C       -0.00465871       1.77757030       0.00794375
H       -0.66225468       2.44313916      -0.64384735
H        0.64322798       2.43503045       0.67728295
C       -1.78241447       0.00034974      -0.00472694
H       -2.45427497      -0.65498947       0.64260836
H       -2.43311707       0.67328779      -0.65473579
C       -0.91132561       0.90220522       0.91563759
C       -0.01476271      -0.02253852       1.78660255
H       -0.67934791      -0.69751639       2.42135241
H        0.63392994       0.61504881       2.47327442
C        0.01484550      -1.77751727      -0.01636693
H        0.67870853      -2.42144646      -0.68295456
H       -0.62264859      -2.45592969       0.64226336
C        1.78714474       0.01002794       0.00389507
H        2.44202412       0.67113390       0.66197326
H        2.45385902      -0.65136977      -0.64189061
C        0.91606151      -0.90478549       0.90901405
