170
Properties=species:S:1:pos:R:3 pbc="F F F"
C        1.79182518       1.79182518      -1.79182518
C        2.61080226       1.20364299      -2.75568661
C        3.41763809       2.00986360      -3.55821757
C        3.39037219       3.39711067      -3.39503660
C        2.58773618       3.98683944      -2.42096355
C        1.77787881       3.17724710      -1.62046068
O        4.27954387       4.12156807      -4.21409094
C        4.00186321       5.39724711      -4.67786311
O        2.99965591       6.06250750      -4.46926950
C        5.14032297       5.87083641      -5.51763844
C        5.12829615       7.18787311      -5.98787096
C        6.16859586       7.66325279      -6.79683609
C        7.22229182       6.81775561      -7.17132277
C        7.23854608       5.50939417      -6.68592500
C        6.21058689       5.03574218      -5.86237716
N        8.21487006       7.34157745      -8.02023316
C        9.15991026       6.62377801      -8.74036930
O        9.24083556       5.40081813      -8.76886045
C       10.04455948       7.45951630      -9.52501896
C       10.93134891       7.13379699     -10.53099368
C       11.55835922       8.33804527     -10.93114738
C       11.02276018       9.32757301     -10.14014306
O       10.08451002       8.81259902      -9.29712216
H        2.63019871       0.12497307      -2.88603426
H        4.06445665       1.55920274      -4.30500829
H        2.58166073       5.06158586      -2.26750068
H        1.14483116       3.63569298      -0.86527964
H        4.30397287       7.85197956      -5.73446508
H        6.12617259       8.68841956      -7.15323640
H        8.05051623       4.82499523      -6.91882882
H        6.26633518       4.00844238      -5.51266303
H        8.19601841       8.33719280      -8.21154021
H       11.09884674       6.13655289     -10.91888519
H       12.31469166       8.46242361     -11.69368041
C       11.39732694      10.71730320     -10.18429888
C       11.71102661      11.88120223     -10.22127938
Br      12.21825244      13.76312853     -10.28107372
C       -1.79182518      -1.79182518      -1.79182518
C       -1.81656727      -3.17074350      -1.58282110
C       -2.62001422      -3.97504544      -2.39065960
C       -3.39790653      -3.39109925      -3.39351368
C       -3.36160560      -2.01654945      -3.61738413
C       -2.55843043      -1.21255454      -2.80460161
O       -4.13347717      -4.29042351      -4.19130221
C       -5.36019679      -3.96801563      -4.74876102
O       -5.97129600      -2.91632901      -4.64380792
C       -5.86774385      -5.13749774      -5.52355623
C       -7.03695973      -4.99042818      -6.27665231
C       -7.55682330      -6.07136647      -7.00049497
C       -6.92946886      -7.32434824      -6.95755309
C       -5.75380646      -7.46183063      -6.21822816
C       -5.22078550      -6.37963450      -5.50828622
N       -7.52382552      -8.38136406      -7.67149109
C       -7.25450085      -9.73611150      -7.53344522
O       -6.46949101     -10.21712910      -6.72389403
C       -8.03840636     -10.57340851      -8.41727987
C       -8.23688700     -11.93908446      -8.42016812
C       -9.07312644     -12.22989773      -9.52452769
C       -9.32984693     -11.02483753     -10.13579179
O       -8.72715933     -10.00645599      -9.46061588
H       -1.21472031      -3.62574487      -0.80074085
H       -2.63831794      -5.05028985      -2.24005989
H       -3.94043315      -1.55742387      -4.41289024
H       -2.53465883      -0.13897375      -2.97217119
H       -7.55698825      -4.03448151      -6.29894774
H       -8.47121768      -5.92774631      -7.56886455
H       -5.21070026      -8.40287974      -6.18076027
H       -4.30526032      -6.53749527      -4.94468500
H       -8.29662995      -8.15896192      -8.28915955
H       -7.81693369     -12.63397030      -7.70338082
H       -9.43177906     -13.20025307      -9.83876355
C      -10.12010925     -10.85175626     -11.32706352
C      -10.78195394     -10.70680069     -12.32475360
Br     -11.85210083     -10.47241979     -13.93793407
C       -1.79182518       1.79182518       1.79182518
C       -1.80783452       3.17198682       1.59031052
C       -2.61130104       3.97626460       2.39815362
C       -3.39791966       3.39112359       3.39347620
C       -3.37040996       2.01518479       3.60994443
C       -2.56718622       1.21124269       2.79715767
O       -4.13293425       4.29010099       4.19216764
C       -5.36446842       3.97141775       4.74108726
O       -5.98074820       2.92371633       4.62696839
C       -5.86985480       5.13941123       5.51953180
C       -7.04400446       4.99466821       6.26536755
C       -7.56191198       6.07446860       6.99230416
C       -6.92745417       7.32418193       6.95973409
C       -5.74698695       7.45922677       6.22765152
C       -5.21600616       6.37801950       5.51468056
N       -7.51992925       8.38052660       7.67622483
C       -7.24240565       9.73450335       7.54714857
O       -6.45030337      10.21561737       6.74459340
C       -8.02656991      10.57124963       8.43127520
C       -8.21755609      11.93796492       8.44061857
C       -9.05827411      12.22732143       9.54195632
C       -9.32498608      11.02035739      10.14513278
O       -8.72418220      10.00238680       9.46766220
H       -1.19918431       3.62794649       0.81407523
H       -2.62286361       5.05240504       2.25339903
H       -3.95613831       1.55490007       4.39970889
H       -2.55024056       0.13664236       2.95892086
H       -7.56939332       4.04150141       6.27952278
H       -8.48020825       5.93278197       7.55483833
H       -5.19851915       8.39745233       6.19836880
H       -4.29652723       6.53391385       4.95699952
H       -8.29734516       8.15900715       8.28839911
H       -7.78983660      12.63444802       7.73000019
H       -9.41332000      13.19790227       9.85957342
C      -10.12275771      10.84510182      11.33106950
C      -10.79089145      10.69832527      12.32429150
Br     -11.87120720      10.46100001      13.93024748
C        1.79182518      -1.79182518       1.79182518
C        2.71145210      -1.20058191       2.65809785
C        3.51803100      -2.00708265       3.46060562
C        3.39025935      -3.39678008       3.39548003
C        2.48609748      -3.99134678       2.51809491
C        1.67686749      -3.18115051       1.71756859
O        4.28521361      -4.12648983       4.20349944
C        3.95852489      -5.34746813       4.77098041
O        2.90355062      -5.95415807       4.67372423
C        5.11924754      -5.84326733       5.56628295
C        5.05480838      -7.12330418       6.12592766
C        6.11557073      -7.61610850       6.89700552
C        7.24484617      -6.82284351       7.14368052
C        7.31189018      -5.55271163       6.56926344
C        6.26229736      -5.06341708       5.78299178
N        8.25773046      -7.35801251       7.96093770
C        9.29441925      -6.66211886       8.56751945
O        9.45574631      -5.44835137       8.50641647
C       10.17533076      -7.50451858       9.34924540
C       11.14845752      -7.17652616      10.27115591
C       11.72264556      -8.39281780      10.71208851
C       11.07118154      -9.39200187      10.02729284
O       10.11221874      -8.86900458       9.21300787
H        2.80924466      -0.11965915       2.71230222
H        4.24245148      -1.55487374       4.13134245
H        2.40022685      -5.07077065       2.43974977
H        0.96507686      -3.64259906       1.03812786
H        4.17391209      -7.74398761       5.97251780
H        6.03183470      -8.61081735       7.32517649
H        8.18038349      -4.91229617       6.70166062
H        6.35989706      -4.06707189       5.36047165
H        8.18799136      -8.33556320       8.22119686
H       11.40618738      -6.17027472      10.57782271
H       12.52012428      -8.51961442      11.43105698
C       11.35757479     -10.79849515      10.14285908
C       11.59742914     -11.97643327      10.23964581
Br      11.98525334     -13.88105959      10.39614176
C       -0.00445707       0.01189536      -1.78238275
H       -0.66409135       0.67374010      -2.43557963
H        0.65740317      -0.63156657      -2.45157240
C       -0.90989263      -0.90692880      -0.91072765
C        0.90977584       0.90977584      -0.90977584
C       -0.00465871       1.77757030       0.00794375
H       -0.66225468       2.44313916      -0.64384735
H        0.64322798       2.43503045       0.67728295
C       -1.78241447       0.00034974      -0.00472694
H       -2.45427497      -0.65498947       0.64260836
H       -2.43311707       0.67328779      -0.65473579
C       -0.91132561       0.90220522       0.91563759
C       -0.01476271      -0.02253852       1.78660255
H       -0.67934791      -0.69751639       2.42135241
H        0.63392994       0.61504881       2.47327442
C        0.01484550      -1.77751727      -0.01636693
H        0.67870853      -2.42144646      -0.68295456
H       -0.62264859      -2.45592969       0.64226336
C        1.78714474       0.01002794       0.00389507
H        2.44202412       0.67113390       0.66197326
H        2.45385902      -0.65136977      -0.64189061
C        0.91606151      -0.90478549       0.90901405
