150
Properties=species:S:1:pos:R:3 pbc="F F F"
C        1.79160045       1.79160045      -1.79160045
C        1.21848675       2.82988966      -2.52792467
C        2.02339237       3.63483496      -3.33905708
C        3.40263872       3.40911535      -3.38785840
C        3.97155505       2.35975594      -2.65488439
C        3.16302217       1.54849782      -1.85633447
C        4.28554040       4.24784673      -4.23658353
N        4.43125800       5.54065118      -4.18703692
N        3.70263024       6.27808493      -3.31891430
C        3.91573566       7.61791009      -3.06407208
O        3.19535391       8.19996116      -2.25141462
C        5.04459047       8.35445599      -3.68288636
C        5.57010140       8.07932700      -4.93886639
N        6.62589773       8.74262075      -5.48451647
C        7.17115013       9.73311475      -4.73985477
C        6.69735311      10.10100642      -3.49087890
C        5.61558310       9.40862317      -2.95836265
C        5.14548818       3.50366409      -5.23558917
H        0.14787389       3.01488517      -2.47945052
H        1.56783361       4.42633322      -3.93005376
H        5.04214301       2.17121837      -2.68997336
H        3.61070013       0.73583763      -1.28885382
H        2.99333784       5.84672347      -2.73779762
H        5.15427753       7.31300465      -5.58481385
H        8.02106594      10.23333510      -5.19530628
H        5.21877674       9.67307448      -1.98090363
H        4.62138487       2.62302925      -5.61824580
H        6.07777395       3.19458963      -4.75437828
H        5.38644496       4.15599258      -6.08049580
C        7.31490857      11.17288140      -2.75378373
C        7.83211126      12.07057669      -2.13646652
Br       8.66838428      13.52207406      -1.13831681
C       -1.79160045      -1.79160045      -1.79160045
C       -3.17591950      -1.78858331      -1.61179828
C       -3.98393198      -2.59854222      -2.41481020
C       -3.40060941      -3.38862489      -3.41037817
C       -2.01022870      -3.39569641      -3.58027027
C       -1.20440810      -2.59612204      -2.76732433
C       -4.23070333      -4.25729603      -4.28197131
N       -5.21316019      -3.89170486      -5.05408105
N       -5.60829443      -2.59912642      -5.09220862
C       -6.50692833      -2.08535343      -6.00543607
O       -6.80051204      -0.88971137      -5.95650629
C       -7.06479879      -2.91983405      -7.09729998
C       -7.29967146      -4.28559098      -7.00303236
N       -7.78427368      -5.04698662      -8.02177465
C       -8.05481242      -4.40608694      -9.18322030
C       -7.88297060      -3.04305966      -9.36320819
C       -7.38916998      -2.28846165      -8.30493729
C       -3.85435436      -5.72326296      -4.30712412
H       -3.63144183      -1.16367306      -0.84709469
H       -5.05960808      -2.61117662      -2.25343590
H       -1.54522339      -4.01079388      -4.34731746
H       -0.12554974      -2.60522898      -2.90461285
H       -5.18838764      -1.90870598      -4.48076531
H       -7.12298528      -4.84121380      -6.08789695
H       -8.42547765      -5.04255605      -9.98167363
H       -7.24358898      -1.21611237      -8.41305351
H       -3.48794130      -6.04635845      -3.32836017
H       -3.07885605      -5.88709872      -5.06078710
H       -4.72817242      -6.32913173      -4.56562919
C       -8.20123249      -2.41901057     -10.62133064
C       -8.46777682      -1.89636947     -11.67500819
Br      -8.89875647      -1.05130300     -13.37871568
C       -1.79160045       1.79160045       1.79160045
C       -3.17493799       1.79691540       1.60444770
C       -3.98291350       2.60690077       2.40747014
C       -3.40072503       3.38857344       3.41031401
C       -2.01125167       3.38733298       3.58761073
C       -1.20535998       2.58779621       2.77469828
C       -4.23083560       4.25702346       4.28211160
N       -5.21931855       3.89258564       5.04704192
N       -5.62149803       2.60194772       5.07618372
C       -6.52769822       2.08813727       5.98188233
O       -6.82735205       0.89435328       5.92502436
C       -7.08694840       2.91977887       7.07520554
C       -7.31407080       4.28724892       6.98697508
N       -7.80005256       5.04580476       8.00717763
C       -8.08017240       4.40020730       9.16373995
C       -7.91652151       3.03534830       9.33736863
C       -7.42109488       2.28375046       8.27772359
C       -3.84685886       5.72080958       4.31707299
H       -3.62968466       1.17850526       0.83401966
H       -5.05763205       2.62612398       2.24046456
H       -1.54708681       3.99586765       4.36038027
H       -0.12721560       2.59042447       2.91775151
H       -5.20200456       1.91255044       4.46330393
H       -7.12956587       4.84676627       6.07576389
H       -8.45170855       5.03440079       9.96359798
H       -7.28177981       1.21008228       8.38089276
H       -3.47352612       6.04713223       3.34200157
H       -3.07453100       5.87651126       5.07569960
H       -4.71881783       6.32994828       4.57416722
C       -8.24478913       2.40634276      10.59044181
C       -8.51971326       1.87955062      11.63989060
Br      -8.96424234       1.02777228      13.33676053
C        1.79160045      -1.79160045       1.79160045
C        1.30983291      -3.02045678       2.24601140
C        2.11379898      -3.82652323       3.05696219
C        3.40605317      -3.40626883       3.38729048
C        3.88123712      -2.16789641       2.93706185
C        3.07069530      -1.35851439       2.13864477
C        4.28618996      -4.24008594       4.24369476
N        4.66833750      -5.46535303       4.02525558
N        4.22515044      -6.13630676       2.93817227
C        4.71247264      -7.36002233       2.52522286
O        4.24086132      -7.88871767       1.51715071
C        5.84816497      -8.01570408       3.21806377
C        6.11831673      -7.89480522       4.57517284
N        7.18093175      -8.47722122       5.19488198
C        8.00254461      -9.22267586       4.41889918
C        7.79830259      -9.42712178       3.06381407
C        6.70320657      -8.82275259       2.45660976
C        4.83587893      -3.56619766       5.48266485
H        0.31012014      -3.35427097       1.97781848
H        1.72388686      -4.77148200       3.42885174
H        4.88232232      -1.82823137       3.19278104
H        3.44555947      -0.39842693       1.79140517
H        3.54646301      -5.72020999       2.31118594
H        5.47789412      -7.32973195       5.24446996
H        8.84940655      -9.66166112       4.93863966
H        6.51386064      -8.96390577       1.39498844
H        4.10965683      -2.85904387       5.89395922
H        5.75933306      -3.03736721       5.23004160
H        5.05915634      -4.31577834       6.24799866
C        8.70369693     -10.24203377       2.29584301
C        9.46196468     -10.92452256       1.65266724
Br      10.68801951     -12.02804921       0.61270643
C       -0.00445707       0.01189536      -1.78238275
H       -0.66409135       0.67374010      -2.43557963
H        0.65740317      -0.63156657      -2.45157240
C       -0.90989263      -0.90692880      -0.91072765
C        0.90977584       0.90977584      -0.90977584
C       -0.00465871       1.77757030       0.00794375
H       -0.66225468       2.44313916      -0.64384735
H        0.64322798       2.43503045       0.67728295
C       -1.78241447       0.00034974      -0.00472694
H       -2.45427497      -0.65498947       0.64260836
H       -2.43311707       0.67328779      -0.65473579
C       -0.91132561       0.90220522       0.91563759
C       -0.01476271      -0.02253852       1.78660255
H       -0.67934791      -0.69751639       2.42135241
H        0.63392994       0.61504881       2.47327442
C        0.01484550      -1.77751727      -0.01636693
H        0.67870853      -2.42144646      -0.68295456
H       -0.62264859      -2.45592969       0.64226336
C        1.78714474       0.01002794       0.00389507
H        2.44202412       0.67113390       0.66197326
H        2.45385902      -0.65136977      -0.64189061
C        0.91606151      -0.90478549       0.90901405
