129
Properties=species:S:1:pos:R:3 pbc="F F F"
C        0.00000000       0.00000000       0.00000000
C        0.88169643       0.88169643      -0.88169643
C        0.30858273       1.91998563      -1.61802065
C        1.11348834       2.72493093      -2.42915306
C        2.49273470       2.49921133      -2.47795438
C        3.06165103       1.44985192      -1.74498037
C        2.25311815       0.63859380      -0.94643045
C        3.37563637       3.33794271      -3.32667951
N        3.52135398       4.63074716      -3.27713289
N        2.79272622       5.36818090      -2.40901027
C        3.00583163       6.70800606      -2.15416806
O        2.28544989       7.29005714      -1.34151060
C        4.13468644       7.44455196      -2.77298234
C        4.66019738       7.16942298      -4.02896237
N        5.71599371       7.83271673      -4.57461245
C        6.26124611       8.82321073      -3.82995074
C        5.78744909       9.19110240      -2.58097488
C        4.70567908       8.49871915      -2.04845863
C        4.23558416       2.59376006      -4.32568514
H       -0.76203013       2.10498115      -1.56954650
H        0.65792959       3.51642920      -3.02014974
H        4.13223898       1.26131434      -1.78006934
H        2.70079610      -0.17406640      -0.37894979
H        2.08343381       4.93681945      -1.82789360
H        4.24437350       6.40310063      -4.67490983
H        7.11116192       9.32343108      -4.28540226
H        4.30887272       8.76317046      -1.07099960
H        3.71148085       1.71312523      -4.70834177
H        5.16786992       2.28468561      -3.84447426
H        4.47654094       3.24608855      -5.17059177
C        6.40500454      10.26297738      -1.84387971
C        6.92220724      11.16067267      -1.22656250
Br       7.75848025      12.61217003      -0.22841279
C       -0.88169643      -0.88169643      -0.88169643
C       -1.93186651      -1.60325970      -0.31146280
C       -2.73686894      -2.41439122      -1.11631216
C       -2.49907516      -2.47789672      -2.49292852
C       -1.43790470      -1.75974552      -3.05883308
C       -0.62673842      -0.96121955      -2.25018442
C       -3.33749663      -3.32702633      -3.37573564
N       -4.62841363      -3.26706611      -3.53375429
N       -5.36444505      -2.38562495      -2.81984739
C       -6.69988234      -2.12057707      -3.04754635
O       -7.28097802      -1.29608493      -2.33995467
C       -7.43178087      -2.74300098      -4.17743889
C       -7.16342143      -4.00619988      -4.68896141
N       -7.82206685      -4.55546137      -5.74579466
C       -8.80068752      -3.80685893      -6.30686113
C       -9.16139597      -2.55029468      -5.84783572
C       -8.47402015      -2.01419210      -4.76464461
C       -2.59472382      -4.34060592      -4.21969962
H       -2.12613635      -1.54328363       0.75692247
H       -3.53786629      -2.99396171      -0.66268052
H       -1.23997051      -1.80636950      -4.12728265
H        0.19513166      -0.40528324      -2.69552792
H       -4.93423654      -1.80197049      -2.11193983
H       -6.40687108      -4.65524566      -4.26026721
H       -9.29731747      -4.26552296      -7.15715482
H       -8.73308825      -1.03076904      -4.37918550
H       -1.72243911      -4.72642866      -3.68408008
H       -2.27278277      -3.87080006      -5.15344696
H       -3.25255979      -5.18172176      -4.45893971
C      -10.22080283      -1.80918164      -6.48187716
C      -11.10805608      -1.18849946      -7.01288686
Br     -12.54266955      -0.18490888      -7.87148464
C       -0.88169643       0.88169643       0.88169643
C       -2.26068271       0.91809956       0.66780675
C       -3.06852083       1.72818052       1.47087098
C       -2.49124770       2.47848754       2.50016517
C       -1.10585313       2.44622734       2.70440284
C       -0.29969848       1.64682471       1.89161920
C       -3.32143951       3.34611168       3.37270741
N       -4.33180947       2.98654588       4.11087868
N       -4.75952294       1.70381969       4.10657476
C       -5.69334137       1.19056743       4.98409695
O       -6.01497791       0.00429664       4.89774307
C       -6.25788918       2.01171273       6.08261883
C       -6.45656720       3.38487797       6.01713755
N       -6.94784596       4.13293457       7.04254235
C       -7.26336771       3.47064228       8.18039759
C       -7.12978039       2.09968498       8.33006099
C       -6.62814240       1.35916369       7.26555077
C       -2.90982488       4.80103318       3.44417130
H       -2.71199849       0.32394128      -0.12344226
H       -4.13913649       1.77197076       1.28340127
H       -0.64536139       3.03028152       3.49797975
H        0.77524211       1.62527554       2.05564606
H       -4.34144353       1.01828925       3.48841408
H       -6.24316663       3.95824701       5.12097032
H       -7.63829251       4.09640076       8.98530198
H       -6.51181790       0.28113852       7.35008636
H       -2.51093939       5.13879323       2.48321522
H       -2.14981900       4.92658969       4.22062111
H       -3.77469689       5.42223639       3.69628798
C       -7.49502353       1.45305583       9.56378227
C       -7.80091465       0.91150392      10.59702384
Br      -8.29551472       0.03586027      12.26768807
C        0.88169643      -0.88169643       0.88169643
C        0.42684826      -2.14001344       1.27972732
C        1.23065852      -2.94631125       2.09060257
C        2.49676362      -2.49573697       2.47739981
C        2.94458167      -1.22826716       2.08363447
C        2.13368622      -0.41928946       1.28516672
C        3.37611917      -3.32881044       3.33532898
N        3.80590694      -4.53307449       3.09025260
N        3.42082736      -5.18128277       1.96780726
C        3.96191936      -6.37408669       1.53199971
O        3.54113062      -6.88375360       0.49213340
C        5.09588878      -7.01547553       2.24085643
C        5.31778006      -6.93135859       3.60944407
N        6.37866763      -7.49948008       4.24517517
C        7.24944024      -8.19157859       3.47338874
C        7.09611637      -8.35708655       2.10632345
C        6.00164395      -7.76850522       1.48270769
C        3.86257116      -2.67930431       4.61315389
H       -0.55193492      -2.49685129       0.96758114
H        0.86074086      -3.91530512       2.41846254
H        3.92494380      -0.86512315       2.38355572
H        2.48726838       0.56350516       0.98191628
H        2.74925010      -4.76663078       1.33226598
H        4.63748793      -6.41001303       4.27488301
H        8.09324644      -8.62006388       4.00668493
H        5.85158478      -7.88012309       0.41133491
H        3.10017044      -2.01017913       5.02259828
H        4.77551170      -2.11270872       4.40880937
H        4.08590911      -3.44644607       5.36086609
C        8.05264366      -9.11612349       1.34309447
C        8.85373527      -9.75181693       0.70389021
Br      10.14903264     -10.77967946      -0.32964902
