181
Properties=species:S:1:pos:R:3 pbc="F F F"
C        0.00000000       0.00000000       0.00000000
C        0.88158497       0.88158497      -0.88158497
C        1.12232520       0.51726901      -2.20301435
C        1.92184129       1.32845184      -3.01189372
C        2.50485970       2.49933320      -2.50134596
C        2.24618433       2.85289228      -1.16764030
C        1.43590750       2.04819192      -0.36142564
C        3.35034850       3.39551534      -3.37333939
S        4.87699786       2.58030464      -3.83729229
O        5.70219319       2.40040463      -2.65918330
O        4.57106148       1.48112755      -4.73530753
O        5.47612840       3.82906670      -4.71047530
C        6.70116288       3.72169021      -5.31498075
C        7.61496257       4.74798524      -5.08806639
C        8.85231092       4.72955137      -5.73202776
C        9.17577578       3.69082709      -6.61015954
C        8.26152636       2.66432399      -6.83945712
C        7.01674357       2.69233463      -6.20075916
O        8.45896545       1.57688488      -7.64939640
S        9.81450902       1.33045007      -8.51851686
O        9.77423541       2.13844668      -9.72195066
O       10.96809160       1.37085719      -7.63709236
C        9.53318675      -0.39001332      -8.92662040
C        8.29382074      -0.57018832      -9.76370146
C        8.37629533      -0.55280511     -11.16428844
C        7.23291746      -0.73546375     -11.94528502
C        5.99885585      -0.93024957     -11.33017596
Br       4.45088569      -1.17428248     -12.38689046
C        5.89818419      -0.94767084      -9.94124713
C        7.04284174      -0.77284254      -9.16021645
H        0.69342633      -0.39269419      -2.61498668
H        2.08647848       1.02672014      -4.04559033
H        2.66898036       3.76036605      -0.74005009
H        1.24447546       2.33981005       0.66816285
H        3.62417949       4.31638337      -2.84776507
H        2.80770815       3.65711659      -4.28696212
H        7.37225460       5.56248033      -4.41085325
H        9.57067310       5.52608438      -5.55119891
H       10.14926678       3.71616768      -7.09193207
H        6.29927086       1.90685444      -6.42096077
H        9.46611615      -0.95121127      -7.98854850
H       10.42111188      -0.74470523      -9.46087054
H        9.33196696      -0.39459289     -11.66200297
H        7.31631026      -0.72138313     -13.02899651
H        4.93637746      -1.09779758      -9.45726024
H        6.94400370      -0.79588891      -8.07593894
C       -0.88158497      -0.88158497      -0.88158497
C       -0.82993961      -2.26579694      -0.74687202
C       -1.64289372      -3.07179082      -1.54750231
C       -2.49873218      -2.50266170      -2.50414499
C       -2.54068411      -1.10440374      -2.62162905
C       -1.73672364      -0.29683280      -1.81196861
C       -3.39894845      -3.36290375      -3.35735103
S       -2.43914496      -4.36076098      -4.49468884
O       -1.79758186      -3.49760214      -5.46659713
O       -1.69491050      -5.35288991      -3.73969614
O       -3.72266058      -5.08698920      -5.20602062
C       -3.52890996      -5.99614371      -6.21278017
C       -4.25434800      -5.80967536      -7.38699084
C       -4.15230042      -6.74123892      -8.42035071
C       -3.33237747      -7.86488499      -8.27949994
C       -2.60744964      -8.05353044      -7.10432739
C       -2.72141012      -7.12307592      -6.06535132
O       -1.74946124      -9.09009671      -6.84568879
S       -1.46623826     -10.31110180      -7.88613589
O       -2.54841014     -11.27351816      -7.81270445
O       -1.04278817      -9.76830611      -9.16494686
C       -0.00364871     -10.97285332      -7.09329180
C       -0.30102773     -11.47995634      -5.70634981
C       -0.66245659     -12.82064478      -5.50467729
C       -0.92353645     -13.30006875      -4.21913353
C       -0.83097435     -12.43985087      -3.12795702
Br      -1.18735296     -13.08765350      -1.38848720
C       -0.47621123     -11.10548190      -3.31006735
C       -0.20746694     -10.62794436      -4.59480435
H       -0.16383160      -2.72870406      -0.02318315
H       -1.59148255      -4.15187848      -1.41542792
H       -3.20164480      -0.62567356      -3.34207815
H       -1.78507760       0.78424381      -1.91528886
H       -4.07746635      -2.75043291      -3.96042867
H       -3.99206458      -4.03265083      -2.72707144
H       -4.89799055      -4.94214035      -7.50545729
H       -4.71225943      -6.59442325      -9.34127371
H       -3.28330210      -8.56622840      -9.10783603
H       -2.18187957      -7.30506885      -5.14013765
H        0.75510388     -10.18330304      -7.07525422
H        0.37347535     -11.77874153      -7.73201102
H       -0.74661552     -13.50549513      -6.34726639
H       -1.19981855     -14.34236203      -4.08174306
H       -0.40447919     -10.43037346      -2.46098747
H        0.07429732      -9.58294573      -4.71540531
C       -0.88158497       0.88158497       0.88158497
C       -0.99051120       0.60992638       2.24217097
C       -1.79027552       1.42180577       3.05010556
C       -2.50467213       2.49907902       2.50178771
C       -2.37797124       2.76040090       1.12834476
C       -1.56784445       1.95599950       0.32168111
C       -3.35231629       3.39712189       3.36976505
S       -4.76711400       2.50924928       4.01823151
O       -5.66179620       2.17095019       2.92903474
O       -4.30453051       1.51404677       4.96891927
O       -5.39884707       3.77646253       4.84036080
C       -6.56145076       3.62643715       5.54994593
C       -7.57112363       4.55823433       5.32165623
C       -8.75028060       4.49890175       6.06470770
C       -8.91962412       3.51434183       7.04279645
C       -7.90930627       2.58256798       7.27343322
C       -6.72314929       2.65241449       6.53427358
O       -7.95458888       1.55356260       8.17709525
S       -9.21535373       1.27719901       9.17092321
O       -9.15038123       2.18212502      10.30212650
O      -10.43194414       1.15727948       8.38681752
C       -8.76334969      -0.37753646       9.68398060
C       -7.45339030      -0.39363837      10.42758195
C       -7.43041804      -0.26746924      11.82482987
C       -6.21989841      -0.29793968      12.52078000
C       -5.02428534      -0.44836440      11.82286130
Br      -3.38573180      -0.48642962      12.76419149
C       -5.02828644      -0.57223095      10.43570497
C       -6.23943647      -0.54964162       9.74042080
H       -0.45820442      -0.22787665       2.68539104
H       -1.85057252       1.19445957       4.11375686
H       -2.90519484       3.59490946       0.66929220
H       -1.47977744       2.17566819      -0.73932298
H       -3.74005284       4.24819629       2.80007879
H       -2.76521588       3.77340578       4.21316519
H       -7.44833579       5.33036121       4.56689119
H       -9.54335295       5.22101092       5.88359252
H       -9.85249711       3.50521011       7.59965930
H       -5.92887971       1.94445842       6.75374795
H       -8.72179348      -1.00724458       8.78890448
H       -9.57596262      -0.75350037      10.31481494
H       -8.35529790      -0.14190025      12.38597939
H       -6.22162997      -0.20117605      13.60346971
H       -4.09693238      -0.68817067       9.88707841
H       -6.22166253      -0.65418834       8.65657953
C        0.88158497      -0.88158497       0.88158497
C        2.23679876      -0.59329567       1.01251413
C        3.04139430      -1.39483840       1.82595415
C        2.50326435      -2.50365025       2.49862426
C        1.13315083      -2.77527900       2.35828708
C        0.32493829      -1.96608272       1.55450404
C        3.35834951      -3.36178291       3.39907080
S        4.58395534      -4.26055584       2.45008361
O        3.91882534      -5.23503674       1.60791904
O        5.55186314      -3.31866129       1.91697212
O        5.24835036      -5.03947241       3.72784764
C        6.28811415      -5.91157836       3.53814133
C        6.16794944      -7.17809719       4.10496756
C        7.22316464      -8.08512729       4.00559812
C        8.40326994      -7.72594831       3.34754415
C        8.52541173      -6.45830747       2.78158828
C        7.46932854      -5.54705636       2.89345246
O        9.60944406      -5.98767290       2.08812978
S       10.97065363      -6.84860952       1.84421280
O       11.79491321      -6.80333245       3.03638708
O       10.63527367      -8.11780653       1.22296094
C       11.68535035      -5.81808728       0.56635620
C       11.98601398      -4.43078673       1.07053317
C       13.24568487      -4.13105981       1.61103398
C       13.53520627      -2.84241130       2.06512117
C       12.56436735      -1.84710974       1.98730515
Br      12.95488953      -0.10391272       2.60469142
C       11.30784897      -2.12765798       1.45625352
C       11.02091718      -3.41438038       0.99491810
H        2.67783997       0.25125245       0.48913130
H        4.09679210      -1.14194190       1.92005495
H        0.67665815      -3.61771217       2.87502618
H       -0.73458307      -2.19034148       1.46036424
H        2.75379752      -4.10492376       3.92960665
H        3.87914992      -2.73939750       4.13323943
H        5.25685696      -7.46628251       4.62244871
H        7.12932687      -9.07742043       4.44120909
H        9.20080584      -8.46186614       3.29469455
H        7.59515980      -4.54921010       2.48271619
H       10.98577515      -5.79358974      -0.27591152
H       12.59846018      -6.31596126       0.22285576
H       14.01431671      -4.89893009       1.68613024
H       14.51736609      -2.62796540       2.47859214
H       10.54670693      -1.35383587       1.39529732
H       10.03464804      -3.61188690       0.57751878
