117
Properties=species:S:1:pos:R:3 pbc="F F F"
C        0.00000000       0.00000000       0.00000000
C        0.88199737       0.88199737      -0.88199737
C        2.20893108       0.53087069      -1.11034913
C        3.01604965       1.34100882      -1.91513487
C        2.50616079       2.51308153      -2.50081353
C        1.15560006       2.83842293      -2.26451399
C        0.35019731       2.03203274      -1.45653152
C        3.41122543       3.37186822      -3.38192885
H        4.42570806       2.95915291      -3.41769542
S        3.58232306       5.04667748      -2.69847729
C        2.46858144       5.76029476      -3.91500387
C        2.29324697       4.74343491      -5.02460392
O        1.70798145       5.04668083      -6.06102723
N        2.88183547       3.52487297      -4.72183908
C        3.04229453       2.45172598      -5.63216650
C        2.25643295       2.32096227      -6.77901189
C        2.49928250       1.27518494      -7.67217945
C        3.53423092       0.39083024      -7.41648081
Br       3.93442734      -1.00273643      -8.61468484
C        4.26159266       0.56677333      -6.25537798
N        4.02218267       1.55491684      -5.35630351
H        2.62534678      -0.37186978      -0.66925790
H        4.04901584       1.04468056      -2.08993168
H        0.70926975       3.72685983      -2.70381305
H       -0.68642905       2.31155075      -1.28409555
H        1.49886213       5.98094577      -3.46398939
H        2.90745651       6.67336532      -4.32328700
H        1.43777865       2.99613263      -6.99197597
H        1.88005135       1.17361124      -8.56080431
H        5.08902794      -0.08972328      -6.00053156
C       -0.88199737      -0.88199737      -0.88199737
C       -0.46500576      -2.16598635      -1.21915879
C       -1.27183479      -2.97094736      -2.02941119
C       -2.50549680      -2.50121546      -2.51334359
C       -2.91021242      -1.20240767      -2.14591690
C       -2.10224587      -0.39597711      -1.34053858
C       -3.36751554      -3.40838743      -3.38911953
H       -2.86349514      -4.36333805      -3.57572321
S       -3.63873671      -2.66432884      -5.02441228
C       -5.32594280      -2.18537876      -4.63255850
C       -5.73617242      -2.94052370      -3.38458969
O       -6.90144265      -2.91730834      -2.99693852
N       -4.67870960      -3.63415075      -2.81568717
C       -4.79585677      -4.57069584      -1.75963441
C       -5.88685349      -4.58143668      -0.88811694
C       -5.97868346      -5.56601978       0.09805635
C       -4.99185029      -6.53415102       0.18445934
Br      -5.09654270      -7.91123028       1.46139722
C       -3.93130578      -6.45530805      -0.69713014
N       -3.80381119      -5.48848868      -1.64110315
H        0.48465303      -2.55181075      -0.85557719
H       -0.93294224      -3.97616112      -2.27452471
H       -3.86041868      -0.79635172      -2.48317223
H       -2.43544777       0.60564671      -1.07941620
H       -5.38605331      -1.11098513      -4.44675885
H       -5.98638913      -2.45953982      -5.45817987
H       -6.66332761      -3.82883364      -0.93372600
H       -6.82714044      -5.56622001       0.77889354
H       -3.12844847      -7.18731442      -0.68407333
C       -0.88199737       0.88199737       0.88199737
C       -0.62884466       2.24713676       0.97416949
C       -1.43492183       3.05267173       1.78459978
C       -2.50377350       2.50253105       2.51375129
C       -2.74667360       1.11982173       2.39204167
C       -1.93859843       0.31376191       1.58640123
C       -3.37098381       3.41088055       3.38315815
H       -3.00160392       4.44226215       3.35869033
S       -3.30036095       2.90133394       5.12578293
C       -4.92940789       2.14457092       5.06990126
C       -5.61649639       2.63370379       3.81108562
O       -6.80531011       2.39377202       3.61660738
N       -4.76641584       3.36598435       2.99614733
C       -5.16918025       4.10198604       1.85502072
C       -6.35569969       3.82980883       1.17089859
C       -6.73178148       4.62712292       0.08774249
C       -5.92872164       5.69377287      -0.28095254
Br      -6.41771922       6.82808922      -1.69943268
C       -4.76002521       5.89678242       0.42693633
N       -4.35749082       5.11506724       1.46084496
H        0.19136920       2.69573432       0.41836978
H       -1.22709772       4.12015076       1.83637959
H       -3.56780930       0.64724681       2.92488652
H       -2.14356735      -0.75193543       1.51758533
H       -4.84565857       1.05614844       5.04199028
H       -5.50738839       2.45277513       5.94394530
H       -6.99201267       2.99600180       1.43787277
H       -7.65366655       4.40699713      -0.44619677
H       -4.09030339       6.71906044       0.19047240
C        0.88199737      -0.88199737       0.88199737
C        2.18481942      -0.49063136       1.17470012
C        2.99214254      -1.30067446       1.97937634
C        2.50662963      -2.51286372       2.50056250
C        1.17951038      -2.87905674       2.19996987
C        0.37416573      -2.07256776       1.39202807
C        3.41079194      -3.37078729       3.38344327
H        4.40642664      -2.92212454       3.47400521
S        3.67226672      -5.01020868       2.64500242
C        2.54237713      -5.81170017       3.78980277
C        2.28629738      -4.84598556       4.92900286
O        1.67490680      -5.21094275       5.92983996
N        2.83800945      -3.59542313       4.69511495
C        2.92249983      -2.55320405       5.65048313
C        2.08981406      -2.49657456       6.77001849
C        2.25828009      -1.47793759       7.71042921
C        3.26692681      -0.54623266       7.52838252
Br       3.56759173       0.81372082       8.79250485
C        4.04348627      -0.64960954       6.39064815
N        3.87643657      -1.61033843       5.44662802
H        2.58205198       0.44350466       0.78418759
H        4.00555648      -0.97293966       2.20513193
H        0.75191804      -3.79995906       2.58806553
H       -0.64364443      -2.38374537       1.16911632
H        1.59950732      -6.05077135       3.29351861
H        3.00081913      -6.72289226       4.18039744
H        1.29061787      -3.20965072       6.92561867
H        1.60277276      -1.43419224       8.57750191
H        4.85374240       0.04677558       6.19286941
