138
Properties=species:S:1:pos:R:3 pbc="F F F"
C        1.79190139       1.79190139      -1.79190139
C        3.11883510       1.44077472      -2.02025315
C        3.92595368       2.25091284      -2.82503890
C        3.41606481       3.42298556      -3.41071755
C        2.06550409       3.74832696      -3.17441802
C        1.26010133       2.94193676      -2.36643554
C        4.32112946       4.28177225      -4.29183287
H        5.33561209       3.86905694      -4.32759945
S        4.49222708       5.95658150      -3.60838132
C        3.37848546       6.67019878      -4.82490790
C        3.20315100       5.65333894      -5.93450794
O        2.61788548       5.95658486      -6.97093125
N        3.79173950       4.43477699      -5.63174311
C        3.95219855       3.36163000      -6.54207053
C        3.16633697       3.23086629      -7.68891592
C        3.40918653       2.18508897      -8.58208347
C        4.44413495       1.30073426      -8.32638484
Br       4.84433136      -0.09283241      -9.52458887
C        5.17149668       1.47667736      -7.16528200
N        4.93208669       2.46482086      -6.26620753
H        3.53525080       0.53803425      -1.57916193
H        4.95891986       1.95458458      -2.99983571
H        1.61917377       4.63676385      -3.61371708
H        0.22347497       3.22145478      -2.19399957
H        2.40876615       6.89084980      -4.37389341
H        3.81736053       7.58326934      -5.23319102
H        2.34768268       3.90603665      -7.90188000
H        2.78995538       2.08351527      -9.47070834
H        5.99893197       0.82018074      -6.91043559
C       -1.79190139      -1.79190139      -1.79190139
C       -1.34548360      -3.05002751      -2.18435187
C       -2.15248513      -3.85488122      -2.99453907
C       -3.41579620      -3.41087354      -3.42309819
C       -3.84942603      -2.13850548      -3.00031756
C       -3.04149579      -1.33199069      -2.19498715
C       -4.27682733      -4.31755884      -4.30034840
H       -3.74901053      -5.24892925      -4.53432869
S       -4.62542923      -3.53103165      -5.90072902
C       -6.31322499      -3.12072263      -5.43964452
C       -6.65777271      -3.92843027      -4.20479489
O       -7.80977497      -3.95603283      -3.77959379
N       -5.56052740      -4.60461881      -3.69311339
C       -5.61283924      -5.57774665      -2.66531319
C       -6.67360874      -5.65226469      -1.76024576
C       -6.70140080      -6.67031481      -0.80464335
C       -5.68185779      -7.60764676      -0.78174949
Br      -5.70038425      -9.02748420       0.45178062
C       -4.65401419      -7.46578091      -1.69366094
N       -4.58863669      -6.46564685      -2.60883155
H       -0.37252283      -3.41573869      -1.86418546
H       -1.78994708      -4.84003879      -3.28335428
H       -4.82271143      -1.75344238      -3.29350089
H       -3.39770676      -0.35074261      -1.89047994
H       -6.40143842      -2.05537308      -5.21669786
H       -6.99144674      -3.39001860      -6.25235555
H       -7.47479009      -4.92460013      -1.75620911
H       -7.52650948      -6.72022039      -0.09744912
H       -3.82820814      -8.17096162      -1.73037854
C       -1.79190139       1.79190139       1.79190139
C       -1.44500902       3.12103937       2.01381458
C       -2.25148176       3.92624984       2.82417381
C       -3.41458418       3.41169128       3.42349246
C       -3.75020352       2.06648098       3.17156456
C       -2.94217498       1.26022534       2.36607332
C       -4.27887513       4.31962129       4.29623816
H       -3.83210504       5.31637591       4.38378752
S       -4.38906976       3.67622239       5.99189775
C       -6.06049769       3.06109138       5.75200308
C       -6.60392451       3.69800042       4.48907294
O       -7.78761911       3.57107294       4.18670955
N       -5.63753383       4.41786254       3.80286323
C       -5.88939012       5.26808287       2.69842610
C       -7.03333237       5.14579912       1.90698770
C       -7.25877712       6.05041288       0.86716897
C       -6.35029817       7.07280287       0.64815302
Br      -6.63525509       8.34679377      -0.70596103
C       -5.23121490       7.12600851       1.45623263
N       -4.97429293       6.23845074       2.45037142
H       -0.55078292       3.54188742       1.55977664
H       -1.96876450       4.96630155       2.97827410
H       -4.64528103       1.62360759       3.60076608
H       -3.22053223       0.22299472       2.19540237
H       -6.05696450       1.97466777       5.64187709
H       -6.68292214       3.34866386       6.60223490
H       -7.75026870       4.34888707       2.05644356
H       -8.14803733       5.94698337       0.24915829
H       -4.48443059       7.90644244       1.33867527
C        1.79190139      -1.79190139       1.79190139
C        3.16157076      -1.86161985       1.55667236
C        3.96716690      -2.67205680       2.36268171
C        3.41257528      -3.42367057       3.41352207
C        2.02506688      -3.32451957       3.63866262
C        1.21904082      -2.51885077       2.83058205
C        4.32094760      -4.29250790       4.28127907
H        5.35689562      -4.24859571       3.92677714
S        3.83692167      -6.04085260       4.17941563
C        3.05698623      -6.01830204       5.79830387
C        3.51886119      -4.76260250       6.50953418
O        3.25980249      -4.58815728       7.69744182
N        4.25132760      -3.92576780       5.68116420
C        4.96560755      -2.78033101       6.10996053
C        4.66747287      -2.11675082       7.30189549
C        5.44423562      -1.02805083       7.70407251
C        6.51661578      -0.63340687       6.92123139
Br       7.62404958       0.79363007       7.44566831
C        6.74568306      -1.32195603       5.74581695
N        5.98419129      -2.36083126       5.31809254
H        3.61363116      -1.28821673       0.75059909
H        5.03804003      -2.70614433       2.16915578
H        1.54869903      -3.87531692       4.44563876
H        0.14974957      -2.46766577       3.02151399
H        1.96954202      -6.00427837       5.69968897
H        3.36939586      -6.89602057       6.36840447
H        3.82877025      -2.40413359       7.92269549
H        5.20390979      -0.51019212       8.63007707
H        7.57374905      -1.06476844       5.09103081
C       -0.00445707       0.01189536      -1.78238275
H       -0.66409135       0.67374010      -2.43557963
H        0.65740317      -0.63156657      -2.45157240
C       -0.90989263      -0.90692880      -0.91072765
C        0.90977584       0.90977584      -0.90977584
C       -0.00465871       1.77757030       0.00794375
H       -0.66225468       2.44313916      -0.64384735
H        0.64322798       2.43503045       0.67728295
C       -1.78241447       0.00034974      -0.00472694
H       -2.45427497      -0.65498947       0.64260836
H       -2.43311707       0.67328779      -0.65473579
C       -0.91132561       0.90220522       0.91563759
C       -0.01476271      -0.02253852       1.78660255
H       -0.67934791      -0.69751639       2.42135241
H        0.63392994       0.61504881       2.47327442
C        0.01484550      -1.77751727      -0.01636693
H        0.67870853      -2.42144646      -0.68295456
H       -0.62264859      -2.45592969       0.64226336
C        1.78714474       0.01002794       0.00389507
H        2.44202412       0.67113390       0.66197326
H        2.45385902      -0.65136977      -0.64189061
C        0.91606151      -0.90478549       0.90901405
