162
Properties=species:S:1:pos:R:3 pbc="F F F"
C        1.79103215       1.79103215      -1.79103215
C        2.29289191       1.29074900      -2.98894473
C        3.10341955       2.09687589      -3.79385275
C        3.41577005       3.41931963      -3.41835420
C        2.89933292       3.89645989      -2.19749803
C        2.09145339       3.08937809      -1.39100425
C        4.33754288       4.29074135      -4.29420205
O        4.15686335       5.69624028      -3.93809599
C        5.30491615       6.28570079      -3.50463508
O        5.44048477       7.44293654      -3.15972322
C        6.32874263       5.25545820      -3.49428948
C        7.65071181       5.37154771      -3.09968587
C        8.44428846       4.22603769      -3.15303543
C        7.90052428       3.00608833      -3.58613992
C        6.55959842       2.91930497      -3.97578784
C        5.77805577       4.06826742      -3.93377497
C        4.00042617       4.24174919      -5.79666062
C        2.66999621       4.45757993      -6.21588651
C        2.32025704       4.43733093      -7.56896805
C        3.29977491       4.21716096      -8.53057462
Br       2.83476117       4.19354871     -10.36195399
C        4.62394423       4.02329019      -8.15084095
C        4.97190138       4.03977586      -6.79559203
H        2.06085810       0.27711207      -3.30554963
H        3.48489688       1.68109744      -4.72509988
H        3.11877241       4.90672591      -1.85566847
H        1.70529986       3.48529798      -0.45471257
H        8.05001458       6.32120595      -2.75715116
H        9.48876458       4.27530901      -2.85160044
H        8.53025690       2.11887345      -3.61610376
H        6.15045816       1.96961100      -4.30747069
H        1.88953103       4.65179173      -5.48026106
H        1.28546925       4.60265193      -7.85748507
H        5.39723403       3.86738257      -8.89975599
H        6.02280733       3.90524897      -6.54892604
C       -1.79103215      -1.79103215      -1.79103215
C       -1.84501761      -3.16320167      -1.56436636
C       -2.64915020      -3.97059785      -2.37440014
C       -3.41993368      -3.41673423      -3.41677597
C       -3.34023621      -2.02595334      -3.62710129
C       -2.53370328      -1.21893564      -2.81919682
C       -4.27791438      -4.31740204      -4.32716985
O       -5.27889041      -3.50154269      -5.01076652
C       -5.17208200      -3.55631760      -6.36685241
O       -5.88119882      -2.98825216      -7.17369354
C       -4.02190496      -4.39182362      -6.66476173
C       -3.50133173      -4.71410821      -7.90650544
C       -2.36308162      -5.51908433      -7.94119563
C       -1.77599833      -5.96904323      -6.74771097
C       -2.32343961      -5.62397366      -5.50727795
C       -3.46649039      -4.83314854      -5.48045922
C       -5.11061421      -5.36471360      -3.56350818
C       -5.91239959      -4.95434663      -2.47671643
C       -6.69582939      -5.86653983      -1.76418680
C       -6.70475383      -7.20578057      -2.13697609
Br      -7.76555265      -8.44350357      -1.18120764
C       -5.94267631      -7.63775454      -3.21764452
C       -5.15567994      -6.72408829      -3.92750105
H       -1.26661482      -3.61457027      -0.76233471
H       -2.67229151      -5.04126476      -2.17753793
H       -3.90699005      -1.54899225      -4.42518448
H       -2.49353034      -0.14803136      -3.00374871
H       -3.96306992      -4.34728140      -8.81802036
H       -1.92303752      -5.79523986      -8.89739665
H       -0.88390327      -6.59111301      -6.79021782
H       -1.85920150      -5.97709374      -4.59124460
H       -5.93594417      -3.90590064      -2.17973902
H       -7.29823748      -5.51806396      -0.92930481
H       -5.95884971      -8.68124506      -3.52427782
H       -4.59428549      -7.10472897      -4.77796789
C       -1.79103215       1.79103215       1.79103215
C       -1.23676248       2.45332938       2.88249379
C       -2.04514621       3.25715012       3.69185186
C       -3.41805939       3.41951523       3.41586925
C       -3.95283963       2.73178326       2.30866794
C       -3.14524322       1.92543307       1.50115944
C       -4.31002190       4.28024481       4.33221956
O       -5.53471861       4.63687438       3.61960663
C       -6.66020311       4.19196797       4.24308093
O       -7.80661454       4.35970438       3.87682561
C       -6.22666034       3.44251851       5.40931146
C       -7.01195476       2.77574065       6.33424997
C       -6.36189053       2.09694868       7.36452237
C       -4.95971926       2.09471259       7.43832068
C       -4.19267093       2.77540212       6.48661818
C       -4.84763903       3.46191473       5.47054440
C       -3.69025565       5.63935785       4.70922248
C       -3.17775249       6.47339478       3.69231539
C       -2.62000836       7.72098673       3.98556093
C       -2.57987297       8.16547682       5.30216070
Br      -1.83183355       9.85331990       5.70511041
C       -3.09707087       7.37648813       6.32451636
C       -3.65145127       6.12592663       6.02989137
H       -0.17936263       2.35135044       3.11280672
H       -1.58756151       3.76286749       4.54066520
H       -5.00915451       2.81437451       2.05763777
H       -3.58528847       1.40814755       0.65187439
H       -8.09461992       2.77977272       6.25397905
H       -6.94311139       1.56057409       8.11198855
H       -4.46603855       1.55493810       8.24425746
H       -3.10883275       2.76491237       6.55379473
H       -3.21699060       6.15348131       2.65111191
H       -2.23000768       8.33650712       3.17909145
H       -3.08362460       7.72641050       7.35433750
H       -4.06270993       5.55486394       6.85940848
C        1.79103215      -1.79103215       1.79103215
C        2.77669280      -2.58451498       1.21137787
C        3.58093938      -3.39467359       2.01853521
C        3.41894848      -3.41569721       3.41879819
C        2.40897662      -2.60740773       3.97690649
C        1.60259130      -1.79966489       3.16957955
C        4.28665546      -4.33674100       4.29908981
O        4.23760588      -3.87059987       5.68299387
C        3.74726995      -4.80673783       6.54124423
O        3.61159794      -4.68856756       7.74297902
C        3.37863719      -5.96040818       5.73944494
C        2.80830090      -7.14766325       6.16598124
C        2.51605629      -8.10869702       5.19860827
C        2.79012468      -7.85814046       3.84448739
C        3.36424490      -6.64691985       3.44352648
C        3.66621631      -5.69915145       4.41473039
C        5.78651464      -4.30359325       3.94872809
C        6.44515884      -3.06006740       3.83823642
C        7.80777168      -2.98172100       3.53706333
C        8.54183703      -4.14851178       3.35716168
Br      10.38551059      -4.04996117       2.95479211
C        7.92662356      -5.38999073       3.48146108
C        6.56147864      -5.46679674       3.77899389
H        2.92757584      -2.58102337       0.13492058
H        4.34345329      -4.00739603       1.54024488
H        2.23501656      -2.59443759       5.05171263
H        0.83215766      -1.18460930       3.62854345
H        2.59354669      -7.31844490       7.21638009
H        2.06738287      -9.05544928       5.49284188
H        2.55037555      -8.61494110       3.09991746
H        3.57004252      -6.46454995       2.39294737
H        5.89345272      -2.13321251       3.99491860
H        8.28319124      -2.00779142       3.45462359
H        8.49962807      -6.30633276       3.35841176
H        6.12989782      -6.45940454       3.88767997
C       -0.00445707       0.01189536      -1.78238275
H       -0.66409135       0.67374010      -2.43557963
H        0.65740317      -0.63156657      -2.45157240
C       -0.90989263      -0.90692880      -0.91072765
C        0.90977584       0.90977584      -0.90977584
C       -0.00465871       1.77757030       0.00794375
H       -0.66225468       2.44313916      -0.64384735
H        0.64322798       2.43503045       0.67728295
C       -1.78241447       0.00034974      -0.00472694
H       -2.45427497      -0.65498947       0.64260836
H       -2.43311707       0.67328779      -0.65473579
C       -0.91132561       0.90220522       0.91563759
C       -0.01476271      -0.02253852       1.78660255
H       -0.67934791      -0.69751639       2.42135241
H        0.63392994       0.61504881       2.47327442
C        0.01484550      -1.77751727      -0.01636693
H        0.67870853      -2.42144646      -0.68295456
H       -0.62264859      -2.45592969       0.64226336
C        1.78714474       0.01002794       0.00389507
H        2.44202412       0.67113390       0.66197326
H        2.45385902      -0.65136977      -0.64189061
C        0.91606151      -0.90478549       0.90901405
