193
Properties=species:S:1:pos:R:3 pbc="F F F"
C        0.00000000       0.00000000       0.00000000
C        0.88137430       0.88137430      -0.88137430
C        2.13664384       1.27422392      -0.42682574
C        2.93831111       2.08926345      -1.23029974
C        2.49143809       2.51516959      -2.49150126
C        1.23130507       2.09933413      -2.93820252
C        0.42390365       1.29116537      -2.13304979
C        3.34300408       3.36433782      -3.31813203
N        4.66477569       3.04737208      -3.54408722
H        5.14441815       2.24924448      -3.15761543
C        5.23982266       3.99860758      -4.34777673
N        4.33825953       4.90449538      -4.66958252
C        3.16138688       4.53296411      -4.04591741
C        1.94825659       5.32596776      -4.19481026
C        1.73138187       6.01392303      -5.39928321
C        0.57832299       6.78048277      -5.59249812
C       -0.36725836       6.86784823      -4.57477670
C       -0.16187258       6.21039659      -3.36412479
C        0.99839924       5.45173053      -3.17200850
C        6.65654800       3.99791414      -4.71189531
C        7.29737218       5.19807451      -5.01769179
C        8.67190221       5.22915659      -5.30421951
C        9.46793438       4.07061450      -5.29774984
C        8.78831651       2.86772446      -5.04172399
C        7.41514008       2.82699173      -4.74798445
N       10.84110368       4.11165184      -5.57482843
C       11.63733260       2.89641733      -5.40658328
C       11.55578049       5.36321712      -5.31760853
H        2.49930454       0.96005989       0.54752067
H        3.90777456       2.40664757      -0.85016855
H        0.86408579       2.40528694      -3.91535669
H       -0.55748039       0.98801649      -2.49053089
H        2.46970554       5.95330663      -6.19786388
H        0.43446882       7.30197805      -6.53468456
H       -0.89134811       6.28410787      -2.56174561
H        1.14985072       4.97218919      -2.20886252
H        6.73187859       6.12888226      -5.02583452
H        9.09809149       6.19912092      -5.54068152
H        9.31176871       1.91657515      -5.05531683
H        6.96222222       1.85681560      -4.56569464
H       11.27061001       2.08899652      -6.04921381
H       11.63616342       2.56618674      -4.36158195
H       12.67903212       3.06431968      -5.70087667
H       11.20465062       6.16749830      -5.97078119
H       12.62625533       5.25613678      -5.52504941
H       11.45213742       5.66593798      -4.26984650
C       -1.56154424       7.64790481      -4.77173602
C       -2.56175866       8.30120219      -4.93668945
Br      -4.17902079       9.35752880      -5.20340520
C       -0.88137430      -0.88137430      -0.88137430
C       -2.18435836      -1.16791068      -0.48542446
C       -2.98677439      -1.98301420      -1.28808570
C       -2.49295630      -2.51508157      -2.49007107
C       -1.18412627      -2.20543829      -2.87927715
C       -0.37654014      -1.39741673      -2.07416194
C       -3.34587100      -3.36265988      -3.31694305
N       -4.62857117      -2.98177159      -3.64589222
H       -5.07845202      -2.13305298      -3.33977306
C       -5.21396801      -3.94621162      -4.42602733
N       -4.35461102      -4.92354802      -4.63417839
C       -3.19605513      -4.58437232      -3.95984095
C       -2.02951882      -5.45694635      -3.98256944
C       -1.78503145      -6.23254930      -5.12700736
C       -0.67396688      -7.07800498      -5.19933202
C        0.20101970      -7.15673640      -4.11964987
C       -0.03435198      -6.41181472      -2.96648211
C       -1.15304156      -5.57385794      -2.89523877
C       -6.60321256      -3.88350826      -4.87963663
C       -7.30009694      -5.06001171      -5.15302984
C       -8.65402305      -5.02652680      -5.52472845
C       -9.37305385      -3.82409915      -5.63914573
C       -8.63435227      -2.65040619      -5.41300650
C       -7.28159010      -2.67373380      -5.03479236
N      -10.72683235      -3.80000686      -6.00074474
C      -11.45217102      -2.53071942      -5.95744278
C      -11.53450446      -4.98715677      -5.71494492
H       -2.58417284      -0.77062359       0.44295267
H       -3.99573713      -2.21637197      -0.95248158
H       -0.77907509      -2.59500078      -3.81065355
H        0.64201917      -1.17750460      -2.38558155
H       -2.46848436      -6.17889699      -5.97349470
H       -0.50734504      -7.66657213      -6.09721426
H        0.63921842      -6.47773435      -2.11598943
H       -1.33118487      -5.02527996      -1.97443761
H       -6.79600381      -6.02180463      -5.06878693
H       -9.12651939      -5.98221340      -5.72916114
H       -9.09395281      -1.67227785      -5.51743003
H       -6.77919114      -1.72292108      -4.88262023
H      -10.99636534      -1.78974307      -6.62271194
H      -11.49279402      -2.13481936      -4.93631874
H      -12.48286488      -2.65407687      -6.30728673
H      -11.19696214      -5.85136634      -6.29460163
H      -12.58145935      -4.82929418      -5.99668799
H      -11.51381175      -5.22775015      -4.64636000
C        1.35251133      -8.01836084      -4.19224707
C        2.31688556      -8.73997131      -4.25304723
Br       3.87619714      -9.90675442      -4.35135593
C       -0.88137430       0.88137430       0.88137430
C       -0.40499077       1.31927947       2.11342325
C       -1.21653713       2.11766202       2.92367515
C       -2.50681110       2.48357837       2.50771947
C       -2.96457507       2.04491546       1.25935118
C       -2.15822273       1.23922206       0.45067402
C       -3.33969892       3.31983543       3.36593958
N       -2.85013687       4.47930987       3.92678824
H       -1.90941081       4.82486299       3.81700425
C       -3.82525339       5.07681284       4.68414073
N       -4.93162877       4.36377381       4.61693485
C       -4.65500225       3.27614278       3.80912338
C       -5.67340073       2.27495758       3.52067630
C       -7.01740885       2.67498781       3.45219145
C       -8.02917419       1.75250264       3.16962705
C       -7.70127908       0.41644011       2.95764739
C       -6.37655527      -0.00562890       3.04172244
C       -5.36824235       0.91989296       3.33400296
C       -3.60329115       6.28547290       5.47759340
C       -4.37527643       6.52367201       6.61419006
C       -4.13458606       7.64264675       7.42804549
C       -3.11675950       8.57099771       7.14854151
C       -2.39011595       8.33920780       5.96844121
C       -2.61916757       7.21971717       5.15123152
N       -2.87646175       9.67961970       7.97150251
C       -1.71081656      10.52247886       7.70703780
C       -3.27030060       9.58775222       9.37855332
H        0.58801097       1.04360997       2.45624477
H       -0.83767565       2.43242614       3.89448888
H       -3.95571911       2.32200076       0.90700955
H       -2.53468859       0.89689888      -0.51052050
H       -7.28104234       3.71821276       3.62162095
H       -9.06116785       2.08868445       3.12127913
H       -6.11582550      -1.04958876       2.88826862
H       -4.34642185       0.56142409       3.42305650
H       -5.17039555       5.83058658       6.88561325
H       -4.78169903       7.76524983       8.29094507
H       -1.61078442       9.02422508       5.64865119
H       -2.01802980       7.11381646       4.25288620
H       -1.75279782      10.95447292       6.70154961
H       -0.78002361       9.95658400       7.82732451
H       -1.67464500      11.37228194       8.39730154
H       -4.35542890       9.50071081       9.48679039
H       -2.98725780      10.49276463       9.92741909
H       -2.78058783       8.73896154       9.86837253
C       -8.73806009      -0.53644057       2.65647708
C       -9.60636418      -1.33447814       2.40424695
Br     -11.01033846      -2.62483740       1.99641215
C        0.88137430      -0.88137430       0.88137430
C        0.33985460      -1.48611337       2.01172553
C        1.15016791      -2.28449014       2.82321624
C        2.50433746      -2.48389650       2.50987497
C        3.02886006      -1.87846345       1.36151821
C        2.22279204      -1.07252462       0.55280215
C        3.33521186      -3.32272589       3.36753617
N        2.91736683      -4.57426290       3.76460525
H        2.03150057      -4.99281958       3.52695790
C        3.87393967      -5.15302585       4.55924145
N        4.90255229      -4.33690670       4.67287844
C        4.59201391      -3.20249878       3.94575571
C        5.52448077      -2.08646614       3.85808770
C        6.90300333      -2.35038103       3.89120375
C        7.83644590      -1.31351000       3.80134798
C        7.39408286       0.00088111       3.68216483
C        6.03093950       0.28681493       3.66852424
C        5.10032309      -0.75374091       3.76807427
C        3.70449507      -6.45226256       5.20959982
C        4.38762518      -6.73311780       6.39239550
C        4.18851064      -7.94737938       7.06938828
C        3.30202920      -8.93282675       6.60144277
C        2.66851395      -8.64962134       5.37962967
C        2.85636175      -7.43558819       4.69816632
N        3.10139065     -10.13773546       7.28845784
C        2.05832830     -11.05383479       6.82817013
C        3.35089677     -10.15475449       8.73095488
H       -0.70382519      -1.34086759       2.27480137
H        0.71690024      -2.73133169       3.71635875
H        4.07173256      -2.02430544       1.08869142
H        2.64995729      -0.59960290      -0.32849321
H        7.25557777      -3.37637813       3.98892016
H        8.89753066      -1.54533105       3.82826972
H        5.67967688       1.31216756       3.58699603
H        4.04322931      -0.50308643       3.78458670
H        5.07849848      -6.00057605       6.80752084
H        4.76158638      -8.09724526       7.97906230
H        1.99695158      -9.36772872       4.91898038
H        2.33383601      -7.29433534       3.75656111
H        2.23799348     -11.37434529       5.79648158
H        1.06714242     -10.59249259       6.90429711
H        2.04558885     -11.96976712       7.42887251
H        4.40649530      -9.97859783       8.95783697
H        3.11252338     -11.13381995       9.16109819
H        2.73300995      -9.41016215       9.24474979
C        8.35090683       1.07209727       3.57928703
C        9.15224690       1.96924080       3.49312688
Br      10.44794602       3.41984601       3.35381320
