177
Properties=species:S:1:pos:R:3 pbc="F F F"
C        0.00000000       0.00000000       0.00000000
N        0.47121664       3.79979015      -5.39378425
C        1.59388535       3.72455359      -5.15136690
C        2.96527548       3.63264094      -4.85524581
C        3.91270930       4.15308992      -5.69794703
N        3.55583860       4.57993359      -6.96215429
N        5.20119518       4.45846834      -5.13234952
C        5.19913712       4.98548294      -3.81140967
C        5.93742311       6.27202272      -3.52275625
C        5.55143254       6.87521855      -2.17220625
C        4.04125971       7.03665161      -2.05343545
C        3.30213973       5.74282277      -2.32212812
O        2.10121668       5.64341269      -2.08865202
C        4.06505139       4.62973735      -2.94966017
C        3.41589350       3.34732996      -3.42585087
H        4.25014029       2.62596502      -3.51737773
C        2.49192209       2.53368437      -2.51429758
C        1.89403424       1.35658781      -3.01582324
C        1.08743993       0.54410164      -2.21275469
C        0.88119806       0.88119806      -0.88119806
C        1.48982004       2.01031760      -0.34588678
C        2.30261490       2.81697694      -1.15210266
C        6.46125157       4.07774734      -5.73410587
C        7.56383126       3.76769152      -4.89783369
C        8.81884849       3.40783242      -5.40667785
C        9.00474235       3.32502471      -6.77847618
Br      10.69315235       2.85011932      -7.47655672
C        7.94767827       3.59143321      -7.63573695
C        6.70103949       3.95814026      -7.11587080
F        5.75754373       4.23407370      -8.02505287
H        2.79191834       4.07710007      -7.40594746
H        4.34454681       4.72505702      -7.58559788
H        7.01964799       6.11051171      -3.53335442
H        5.71421263       6.99685107      -4.31658417
H        5.92045921       6.23230901      -1.36372231
H        6.03773286       7.85077639      -2.05119739
H        3.68326733       7.78362382      -2.77080520
H        3.79109726       7.37377342      -1.04202090
H        2.05114693       1.04915175      -4.04856575
H        0.62942255      -0.34496650      -2.63802010
H        1.34080561       2.27781846       0.69709411
H        2.76963997       3.67619441      -0.67974914
H        7.46094231       3.78431940      -3.81458762
H        9.63442816       3.19298277      -4.72006949
H        8.06952263       3.53094132      -8.71302802
N       -1.31648539      -2.28033109      -6.06797455
C       -2.27251469      -2.65171144      -5.54557971
C       -3.44035010      -3.10536143      -4.90745069
C       -4.45761101      -3.69086239      -5.61527285
N       -4.45613017      -3.64603074      -6.99576557
N       -5.36101192      -4.54368239      -4.88731873
C       -4.78217296      -5.34725065      -3.86660612
C       -5.03774918      -6.83660476      -3.85784813
C       -4.08144989      -7.58672331      -2.93068413
C       -2.63003382      -7.25152858      -3.24978437
C       -2.36874212      -5.76019409      -3.23815441
O       -1.22365312      -5.32105947      -3.28856879
C       -3.54835619      -4.85284930      -3.24324342
C       -3.43616732      -3.35117452      -3.40173249
H       -4.40258882      -2.95585058      -3.03504364
C       -2.48919819      -2.52433076      -2.52637509
C       -2.40617883      -1.12939580      -2.73087067
C       -1.60223032      -0.31658170      -1.92548423
C       -0.88119806      -0.88119806      -0.88119806
C       -0.97435998      -2.24452641      -0.62713803
C       -1.78644104      -3.05337148      -1.43188198
C       -6.80280988      -4.47601395      -4.99428096
C       -7.59751503      -4.77376329      -3.85807816
C       -8.99814975      -4.74624167      -3.88896734
C       -9.65162862      -4.39574277      -5.06087185
Br     -11.53824287      -4.36376009      -5.11782543
C       -8.91612125      -4.06858527      -6.19014191
C       -7.51767676      -4.10787853      -6.14949525
F       -6.90052631      -3.81500408      -7.30113991
H       -4.03655884      -2.82145307      -7.41695397
H       -5.34758168      -3.89103084      -7.41658919
H       -6.06394752      -7.05357051      -3.54599610
H       -4.92499398      -7.22358299      -4.87907089
H       -4.30146731      -7.32709834      -1.88792489
H       -4.24159843      -8.66705815      -3.03105006
H       -2.36354554      -7.63185315      -4.24229766
H       -1.97745366      -7.72237475      -2.50706317
H       -2.97415748      -0.64875937      -3.52594758
H       -1.54941009       0.75065134      -2.12371741
H       -0.42011645      -2.69416168       0.19274817
H       -1.83886518      -4.10815425      -1.17856410
H       -7.13338389      -5.02111249      -2.90535295
H       -9.55940108      -4.99642335      -2.99165598
H       -9.40626536      -3.78928534      -7.11794129
N       -5.79267851       3.09829692       0.77381559
C       -5.23255576       3.58177531       1.65547476
C       -4.54833629       4.17237030       2.73245564
C       -5.11419776       5.17966811       3.46988038
N       -6.27436216       5.78948097       3.03408335
N       -4.60223904       5.39071767       4.79905634
C       -4.24498742       4.22299555       5.52804677
C       -4.80939501       4.00934701       6.91346005
C       -4.61740018       2.57511423       7.40634293
C       -5.16196915       1.57000169       6.39937594
C       -4.58093186       1.77050317       5.01565558
O       -4.76289823       0.94049830       4.12988485
C       -3.85299810       3.04113233       4.75031848
C       -3.36992564       3.44567975       3.37346894
H       -2.60758831       4.22591559       3.55997914
C       -2.53617681       2.49520769       2.50851955
C       -2.13026785       2.91392056       1.22225689
C       -1.32124952       2.11189764       0.41114910
C       -0.88119806       0.88119806       0.88119806
C       -1.22815951       0.45875772       2.15910719
C       -2.03257128       1.26858977       2.97053345
C       -4.24979454       6.68804893       5.33526132
C       -3.17985182       6.78892479       6.26057985
C       -2.79165840       8.00659095       6.83510941
C       -3.45291730       9.17333389       6.48199205
Br      -2.94534544      10.81868205       7.25580090
C       -4.48717722       9.12847267       5.55919853
C       -4.87150738       7.90506517       4.99847800
F       -5.90570918       7.96113962       4.14982150
H       -6.39744043       5.85065487       2.02687057
H       -6.48370327       6.66284270       3.50865574
H       -4.34202761       4.68838359       7.63310293
H       -5.88178364       4.24430006       6.90156416
H       -3.55096453       2.38583712       7.57968888
H       -5.12521612       2.44482431       8.36966622
H       -6.25114702       1.66311423       6.32343510
H       -4.91919252       0.55540116       6.73229790
H       -2.43784358       3.88175872       0.82926213
H       -1.04330835       2.45948465      -0.58031684
H       -0.88201076      -0.49918651       2.53870571
H       -2.25818013       0.90037453       3.96702887
H       -2.60667783       5.90854278       6.54462872
H       -1.97226887       8.02524951       7.54996203
H       -5.01773758      10.02945837       5.26629603
N        5.76782685      -3.15105585       0.74590833
C        5.21202543      -3.61934828       1.63843213
C        4.53308457      -4.19139293       2.72868473
C        5.09614404      -5.19684867       3.47075354
N        6.24520260      -5.82340465       3.02931924
N        4.59607623      -5.38857329       4.80736352
C        4.25877060      -4.20958636       5.52767278
C        4.83998360      -3.98744190       6.90477658
C        4.66820823      -2.54618737       7.38446173
C        5.21258648      -1.55746393       6.36129636
C        4.61490094      -1.76626942       4.98592025
O        4.79616649      -0.94753719       4.08957771
C        3.87096304      -3.03184244       4.74164343
C        3.36917122      -3.44563435       3.37426876
H        2.60073255      -4.21578169       3.57696880
C        2.53631290      -2.49550131       2.50808984
C        2.11248489      -2.92332532       1.23063510
C        1.30337136      -2.12132347       0.41960143
C        0.88119806      -0.88119806       0.88119806
C        1.24603580      -0.44911163       2.15087699
C        2.05046501      -1.25886977       2.96235973
C        4.23577393      -6.67643346       5.36089740
C        3.17466932      -6.75632388       6.29836327
C        2.77985960      -7.96374951       6.88974965
C        3.42511962      -9.14103975       6.54208387
Br       2.90857920     -10.77275609       7.33849310
C        4.44998654      -9.11675447       5.60810741
C        4.84113930      -7.90340297       5.03050827
F        5.86567617      -7.97926666       4.17172747
H        6.35698838      -5.89640013       2.02157736
H        6.45040452      -6.69392062       3.51087657
H        4.37317173      -4.65394424       7.63639816
H        5.90967222      -4.23382128       6.88415437
H        3.60569993      -2.34385416       7.56693644
H        5.18750585      -2.41120657       8.34099423
H        6.29986860      -1.66286527       6.27496248
H        4.98395887      -0.53693094       6.68600176
H        2.40575868      -3.89841352       0.84469223
H        1.01135448      -2.47629977      -0.56517809
H        0.91394832       0.51635116       2.52393280
H        2.29042410      -0.88266214       3.95249729
H        2.61376160      -5.86701538       6.57907235
H        1.96791670      -7.96627834       7.61328537
H        4.96797643     -10.02630679       5.31920876
