185
Properties=species:S:1:pos:R:3 pbc="F F F"
C        0.00000000       0.00000000       0.00000000
N        0.47121664       3.79979015      -5.39378425
C        1.59388535       3.72455359      -5.15136690
C        2.96527548       3.63264094      -4.85524581
C        3.91270930       4.15308992      -5.69794703
N        3.55583860       4.57993359      -6.96215429
N        5.20119518       4.45846834      -5.13234952
C        5.19913712       4.98548294      -3.81140967
C        5.93742311       6.27202272      -3.52275625
C        5.55143254       6.87521855      -2.17220625
C        4.04125971       7.03665161      -2.05343545
C        3.30213973       5.74282277      -2.32212812
O        2.10121668       5.64341269      -2.08865202
C        4.06505139       4.62973735      -2.94966017
C        3.41589350       3.34732996      -3.42585087
H        4.25014029       2.62596502      -3.51737773
C        2.49192209       2.53368437      -2.51429758
C        1.89403424       1.35658781      -3.01582324
C        1.08743993       0.54410164      -2.21275469
C        0.88119806       0.88119806      -0.88119806
C        1.48982004       2.01031760      -0.34588678
C        2.30261490       2.81697694      -1.15210266
C        6.46125157       4.07774734      -5.73410587
C        7.56383126       3.76769152      -4.89783369
C        8.81884849       3.40783242      -5.40667785
C        9.00474235       3.32502471      -6.77847618
C        7.94767827       3.59143321      -7.63573695
C        6.70103949       3.95814026      -7.11587080
F        5.75754373       4.23407370      -8.02505287
H        2.79191834       4.07710007      -7.40594746
H        4.34454681       4.72505702      -7.58559788
H        7.01964799       6.11051171      -3.53335442
H        5.71421263       6.99685107      -4.31658417
H        5.92045921       6.23230901      -1.36372231
H        6.03773286       7.85077639      -2.05119739
H        3.68326733       7.78362382      -2.77080520
H        3.79109726       7.37377342      -1.04202090
H        2.05114693       1.04915175      -4.04856575
H        0.62942255      -0.34496650      -2.63802010
H        1.34080561       2.27781846       0.69709411
H        2.76963997       3.67619441      -0.67974914
H        7.46094231       3.78431940      -3.81458762
H        9.63442816       3.19298277      -4.72006949
H        8.06952263       3.53094132      -8.71302802
C       10.29268688       2.96275974      -7.31098251
C       11.37134041       2.65936282      -7.75695657
Br      13.11543196       2.16879567      -8.47805889
N       -1.10326155      -2.56520663      -5.99632284
C       -2.10836221      -2.84893919      -5.51250444
C       -3.33614002      -3.19552334      -4.92149886
C       -4.34490372      -3.76375625      -5.65508628
N       -4.26177146      -3.80290749      -7.03324753
N       -5.33851777      -4.51779256      -4.93570271
C       -4.86880360      -5.28974450      -3.83748164
C       -5.21433684      -6.75876936      -3.75909588
C       -4.35988472      -7.50471569      -2.73425693
C       -2.87494111      -7.27303711      -2.98336856
C       -2.52475795      -5.80112882      -3.04120384
O       -1.35413362      -5.43205748      -3.04709029
C       -3.64493459      -4.82980023      -3.16971408
C       -3.43298056      -3.34938150      -3.40671226
H       -4.39302482      -2.87792954      -3.12252868
C       -2.48920358      -2.52646366      -2.52423680
C       -2.31016181      -1.15353610      -2.80274739
C       -1.50575773      -0.34066564      -1.99787289
C       -0.88119806      -0.88119806      -0.88119806
C       -1.07126391      -2.21904244      -0.55571807
C       -1.88356821      -3.02745369      -1.36067260
C       -6.76507624      -4.37440560      -5.13362295
C       -7.64004548      -4.55675376      -4.03255723
C       -9.03236922      -4.45111295      -4.14987659
C       -9.59530197      -4.13555689      -5.37738439
C       -8.77793693      -3.92009743      -6.47681407
C       -7.38906782      -4.03675178      -6.34923095
F       -6.69044799      -3.85004562      -7.47617668
H       -3.76955708      -3.03074093      -7.47466786
H       -5.14091920      -4.02160893      -7.49267359
H       -6.26795642      -6.89738426      -3.49817345
H       -5.06705476      -7.21279646      -4.74779664
H       -4.62301251      -7.17015884      -1.72331919
H       -4.57927114      -8.57822113      -2.78221437
H       -2.57569906      -7.72748268      -3.93451461
H       -2.29566349      -7.73450487      -2.17672321
H       -2.80154478      -0.69032565      -3.65699399
H       -1.37704680       0.70780734      -2.25323669
H       -0.59310628      -2.64906930       0.32064562
H       -2.01427893      -4.06020088      -1.05110372
H       -7.24701148      -4.77198785      -3.04085000
H       -9.65815184      -4.61389940      -3.27542918
H       -9.19638046      -3.67002437      -7.44708715
C      -11.02546627      -4.03158998      -5.50937288
C      -12.22322887      -3.94451770      -5.61991324
Br     -14.15990969      -3.80372918      -5.79864765
N       -5.71409749       3.25957005       0.69112348
C       -5.16803562       3.69644118       1.60532904
C       -4.50099184       4.23010331       2.72206707
C       -5.05850760       5.23152808       3.47371058
N       -6.18400638       5.89230870       3.02161140
N       -4.58375730       5.38368933       4.82456641
C       -4.28752360       4.18249926       5.52600687
C       -4.90327587       3.94372552       6.88520068
C       -4.77284531       2.48914496       7.33686706
C       -5.31575622       1.53462745       6.28096311
C       -4.68386179       1.75967192       4.92355691
O       -4.86296633       0.96442939       4.00588566
C       -3.90789918       3.01363196       4.72291777
C       -3.36764888       3.44548976       3.37593569
H       -2.58753989       4.19417078       3.61177236
C       -2.53656868       2.49612334       2.50721202
C       -2.07590911       2.94178762       1.24874856
C       -1.26660172       2.13982348       0.43787106
C       -0.88119806       0.88119806       0.88119806
C       -1.28281619       0.43015162       2.13305660
C       -2.08728554       1.23975657       2.94465239
C       -4.20819259       6.65125631       5.41365589
C       -3.16634268       6.68791491       6.37509889
C       -2.75883151       7.87352281       7.00100444
C       -3.37104756       9.07177860       6.66541708
C       -4.37556487       9.08983352       5.70945003
C       -4.77984839       7.89792811       5.09727405
F       -5.78353776       8.01447151       4.21866104
H       -6.27217983       5.98924095       2.01354510
H       -6.38102718       6.75660988       3.51756464
H       -4.43841452       4.58409452       7.64100509
H       -5.96675122       4.21378354       6.84711310
H       -3.71913939       2.25981133       7.53753981
H       -5.31566710       2.34512797       8.27891157
H       -6.39839426       1.66556124       6.17374085
H       -5.11612778       0.50264206       6.58812173
H       -2.33978758       3.93106909       0.87800776
H       -0.94563774       2.50929871      -0.53246029
H       -0.97965517      -0.55008097       2.49195576
H       -2.35678661       0.84780894       3.92098798
H       -2.63082508       5.78077854       6.64824571
H       -1.96300943       7.84286613       7.74160485
H       -4.86757337      10.01644226       5.42947635
C       -2.96387670      10.29431383       7.30823859
C       -2.62287111      11.31818709       7.84660161
Br      -2.07149390      12.97370355       8.71708907
N        5.73213623      -3.22392155       0.70873324
C        5.18274847      -3.67114276       1.61591461
C        4.51164203      -4.21744799       2.72407221
C        5.07094643      -5.22023292       3.47256690
N        6.20429136      -5.86980176       3.02383336
N        4.58775133      -5.38536402       4.81889769
C        4.27801791      -4.19132466       5.52668716
C        4.88242738      -3.95788852       6.89188617
C        4.73845042      -2.50752017       7.35288675
C        5.28200285      -1.54169179       6.30765214
C        4.66134162      -1.76152623       4.94422277
O        4.84126283      -0.95852186       4.03349670
C        3.89576720      -3.01948132       4.72920039
C        3.36814464      -3.44554486       3.37538484
H        2.59173914      -4.20138415       3.60035975
C        2.53648823      -2.49591630       2.50749951
C        2.08792477      -2.93585323       1.24266730
C        1.27868078      -2.13387753       0.43173795
C        0.88119806      -0.88119806       0.88119806
C        1.27073143      -0.43624972       2.13904326
C        2.07518696      -1.24590516       2.95060238
C        4.21706712      -6.65971822       5.39631945
C        3.16873206      -6.71058935       6.35003506
C        2.76525897      -7.90347671       6.96462308
C        3.38835086      -9.09495301       6.62493937
C        4.39970613      -9.09909563       5.67604667
C        4.79980979      -7.90003169       5.07520906
F        5.81049158      -8.00321457       4.20296416
H        6.30027907      -5.95892648       2.01576033
H        6.40395048      -6.73619825       3.51505298
H        4.41680541      -4.60689507       7.63981365
H        5.94804178      -4.22014150       6.85946459
H        3.68174529      -2.28707833       7.54766690
H        5.27355770      -2.36638091       8.29976802
H        6.36627704      -1.66419968       6.20721963
H        5.07286295      -0.51335751       6.62067111
H        2.36145694      -3.92057859       0.86682889
H        0.96722580      -2.49869339      -0.54344303
H        0.95806686       0.53923378       2.50269688
H        2.33497912      -0.85902471       3.93157969
H        2.62484957      -5.80923077       6.62576900
H        1.96402161      -7.88372343       7.69973538
H        4.90026867     -10.02018465       5.39303866
C        2.98536143     -10.32488390       7.25618380
C        2.64785778     -11.35495101       7.78485101
Br       2.10214292     -13.02048243       8.63966117
