117
Properties=species:S:1:pos:R:3 pbc="F F F"
C        0.00000000       0.00000000       0.00000000
C        0.88041768       0.88041768      -0.88041768
C        1.86189208       0.30802729      -1.67637451
C        2.66789219       1.12112111      -2.48625595
C        2.51464127       2.52123671      -2.52219733
C        1.51617308       3.06386912      -1.69788403
C        0.70415157       2.25638051      -0.88736249
N        3.35277080       3.34319400      -3.35955579
C        3.24989883       4.73903117      -3.47103474
O        2.40372922       5.46979666      -2.96160958
C        4.32008205       5.33815755      -4.35856747
S        5.51800769       4.05201969      -4.69063105
C        4.36290692       2.74279739      -4.22131147
H        4.94143298       2.00600023      -3.65470472
C        3.73597934       2.14916302      -5.46237868
C        2.59619983       2.52998599      -6.15656745
C        2.33729571       1.70000900      -7.28864873
C        3.28762481       0.72069414      -7.41243916
S        4.47050040       0.77664542      -6.20409469
H        2.01343675      -0.76842171      -1.68046501
H        3.41173761       0.60234625      -3.08252789
H        1.32399104       4.13001158      -1.64567109
H       -0.05925527       2.72273725      -0.26908690
H        3.86396281       5.68428746      -5.28977234
H        4.80153106       6.17347773      -3.84410619
H        1.96537360       3.36298577      -5.86693787
H        1.49808071       1.82543129      -7.96225849
C        3.28235768      -0.26381982      -8.46329811
C        3.27794647      -1.08835026      -9.34339248
Br       3.27081391      -2.42154624     -10.76643064
C       -0.88041768      -0.88041768      -0.88041768
C       -2.06455937      -1.40177826      -0.37995626
C       -2.87241057      -2.20915164      -1.19370704
C       -2.51997393      -2.51497205      -2.52312934
C       -1.31150138      -1.97519608      -2.99122877
C       -0.49976588      -1.16428702      -2.18384167
N       -3.36127387      -3.34803488      -3.34621184
C       -3.09533422      -3.68045612      -4.68417440
O       -2.17933182      -3.26564821      -5.39015543
C       -4.11129827      -4.64145102      -5.26405777
S       -5.11235118      -5.24025974      -3.90804751
C       -4.62163680      -3.87075538      -2.83462362
H       -4.46766945      -4.29661239      -1.83785608
C       -5.69583434      -2.80694848      -2.84473822
C       -5.86959381      -1.72140810      -3.69175135
C       -7.02022411      -0.94369490      -3.36203442
C       -7.67678486      -1.46551547      -2.27845778
S       -6.94191885      -2.85554126      -1.65378039
H       -2.37549764      -1.18990453       0.63992212
H       -3.78383915      -2.57836321      -0.73440939
H       -0.94580817      -2.15807545      -3.99579011
H        0.42558406      -0.76543001      -2.59272292
H       -4.73222827      -4.11334943      -5.99244491
H       -3.59673847      -5.47649360      -5.74588291
H       -5.20011643      -1.48414743      -4.51103339
H       -7.33396547      -0.05515077      -3.89665426
C       -8.87250021      -0.88914938      -1.72018638
C       -9.87391181      -0.40644279      -1.25263409
Br     -11.49310968       0.37405295      -0.49664158
C       -0.88041768       0.88041768       0.88041768
C       -0.40203942       1.34884830       2.09540617
C       -1.21416997       2.16010514       2.90099414
C       -2.51964634       2.52332025       2.51510873
C       -2.97077058       2.02423122       1.28292443
C       -2.16283897       1.21462727       0.47042833
N       -3.34237796       3.35722410       3.35591853
C       -4.64130611       3.78320485       3.03545378
O       -5.25053135       3.60030576       1.98429835
C       -5.29118168       4.57643917       4.14918621
S       -4.25553395       4.40738792       5.59773656
C       -2.83169478       3.87777536       4.61754566
H       -2.34838995       3.07294083       5.18080714
C       -1.90796394       5.05225308       4.38730403
C       -1.90594796       6.00170553       3.37509977
C       -0.85369734       6.95579503       3.51646107
C       -0.09605826       6.69639313       4.62830671
S       -0.61738347       5.33962609       5.49423095
H        0.59996504       1.09413352       2.43131156
H       -0.77122801       2.49011461       3.83526913
H       -3.96258821       2.23765531       0.89943020
H       -2.55509012       0.85563009      -0.47815134
H       -5.36145213       5.62574255       3.85082793
H       -6.28781611       4.17756266       4.35373621
H       -2.62109036       6.01405164       2.56015524
H       -0.67475863       7.77754152       2.83347034
C        1.03567334       7.49452340       5.02298592
C        1.98349855       8.16295750       5.35352975
Br       3.51605176       9.24375890       5.88799117
C        0.88041768      -0.88041768       0.88041768
C        0.34852509      -1.49091984       2.00684895
C        1.16110714      -2.30160787       2.81255425
C        2.52033566      -2.52289515       2.51484451
C        3.02386283      -1.88264298       1.37142042
C        2.21615280      -1.07264978       0.55909199
N        3.34258951      -3.35830813       3.35462295
C        4.69555091      -3.64819132       3.11622250
O        5.36922306      -3.32501428       2.14089813
C        5.32057191      -4.48117191       4.21506325
S        4.16050202      -4.52427632       5.57588010
C        2.77943816      -4.02726623       4.52031140
H        2.18336482      -3.31671889       5.10205422
C        1.98413357      -5.24769978       4.11568769
C        2.14731763      -6.10155944       3.03387619
C        1.17503484      -7.14622016       3.00469844
C        0.31023283      -7.04757642       4.06294886
S        0.63865624      -5.73452361       5.07806065
H       -0.69582840      -1.34845972       2.27284873
H        0.67489776      -2.74714347       3.67457052
H        4.05831571      -1.98074729       1.06061072
H        2.65064089      -0.60116952      -0.31924154
H        5.50666099      -5.49107582       3.84028581
H        6.25850553      -4.02265027       4.53795918
H        2.92423762      -5.98444130       2.28661832
H        1.12475297      -7.91650926       2.24450826
C       -0.77512567      -7.96607621       4.29088543
C       -1.68411340      -8.73531978       4.48178231
Br      -3.15386969      -9.97912158       4.79044642
