186
Properties=species:S:1:pos:R:3 pbc="F F F"
C        1.79167103       1.79167103      -1.79167103
C        2.84230154       1.22327364      -2.50647059
C        3.64868841       2.03066553      -3.31251832
C        3.41206340       3.41138996      -3.41097781
C        2.34760289       3.96467292      -2.68351640
C        1.54058877       3.15879780      -1.87553646
C        4.27433672       4.28226281      -4.29612427
N        3.77220099       4.31840448      -5.66278642
C        2.88629445       5.21815721      -6.24460402
C        2.62977758       4.76825890      -7.53824818
C        3.46913300       3.64689343      -7.76243666
S        3.86106540       2.53882612      -9.03538651
C        5.02464113       1.81980018      -8.02483756
Br       6.10869797       0.39999433      -8.60580861
C        5.11527229       2.34560886      -6.75932709
C        4.18158217       3.41476374      -6.62668787
C        2.37044601       6.42227037      -5.59830015
O        2.75020233       6.83231600      -4.50486647
N        1.43732299       7.11487840      -6.32277967
C        0.89374331       8.37952558      -5.88228714
C        0.00658212       8.98706900      -6.94656019
C       -0.14882010      10.36842658      -7.02871428
C       -0.98796861      10.89206557      -8.00920295
C       -1.65744380      10.02860647      -8.86823688
C       -1.45608198       8.66793304      -8.71649682
N       -0.64094520       8.12865760      -7.78370120
H        3.04079919       0.15662753      -2.44602251
H        4.46344275       1.56861479      -3.86408514
H        2.13866559       5.03184287      -2.73960835
H        0.72133555       3.60832481      -1.32046479
H        5.30090568       3.89638523      -4.32166081
H        4.35899306       5.29756043      -3.90402507
H        1.96790159       5.21018293      -8.27042123
H        5.79996434       2.00298754      -5.99543319
H        1.00422368       6.71990275      -7.14679519
H        1.73296722       9.04530902      -5.65053467
H        0.31575521       8.21247728      -4.96748320
H        0.37707715      11.03202971      -6.34961254
H       -1.12010327      11.96692402      -8.10118749
H       -2.32205351      10.40686843      -9.63686226
H       -1.96177508       7.95309312      -9.35943163
C       -1.79167103      -1.79167103      -1.79167103
C       -1.91919405      -3.14790347      -1.50494826
C       -2.72567104      -3.95388857      -2.31231265
C       -3.41084530      -3.41182422      -3.41176164
C       -3.27002501      -2.04255976      -3.68320743
C       -2.46260027      -1.23486516      -2.87745761
C       -4.29661912      -4.28064106      -4.27546361
N       -5.65090390      -4.35734604      -3.74514195
C       -6.75077752      -3.55931928      -4.03895889
C       -7.78636460      -3.95512872      -3.19479133
C       -7.32396500      -5.08385809      -2.47064001
S       -7.91194519      -6.22058166      -1.30275119
C       -6.42927002      -7.04881348      -1.39119537
Br      -6.10008063      -8.61179648      -0.40262380
C       -5.49252491      -6.49718836      -2.23049498
C       -6.04082155      -5.33477197      -2.84744027
C       -6.78593385      -2.53014280      -5.07493988
O       -5.87830563      -2.33126448      -5.87781468
N       -7.94410156      -1.80146261      -5.12941689
C       -8.19165342      -0.81124236      -6.15266025
C       -9.60415549      -0.27756543      -6.05849039
C      -10.25334067       0.19935817      -7.19433827
C      -11.54654770       0.70056362      -7.06731582
C      -12.14984972       0.72593495      -5.81548479
C      -11.43494397       0.24099496      -4.73439887
N      -10.18420042      -0.26171239      -4.82550078
H       -1.39942405      -3.58655270      -0.65747248
H       -2.81390139      -5.01028974      -2.07195156
H       -3.78896559      -1.59287661      -4.52827462
H       -2.36764004      -0.17650938      -3.10597574
H       -3.89347857      -5.29962927      -4.32584388
H       -4.32124013      -3.93025817      -5.30908026
H       -8.78125326      -3.53607799      -3.13117450
H       -4.50197864      -6.89735490      -2.39905152
H       -8.63433617      -1.84491541      -4.39167005
H       -8.01928659      -1.28240646      -7.12711786
H       -7.47578263       0.00775205      -6.02768512
H       -9.76995068       0.17714396      -8.16591268
H      -12.07945085       1.07068897      -7.93924636
H      -13.15296622       1.11615014      -5.68486111
H      -11.86116290       0.24561095      -3.73519774
C       -1.79167103       1.79167103       1.79167103
C       -1.80480337       3.17002314       1.59721927
C       -2.61137912       3.97595006       2.40454308
C       -3.41084564       3.41175665       3.41182887
C       -3.38425260       2.02050650       3.59103310
C       -2.57696923       1.21269877       2.78525503
C       -4.29615855       4.28216768       4.27439756
N       -5.59944811       4.49413427       3.65980951
C       -6.76988881       3.76077418       3.81839269
C       -7.71124070       4.28829760       2.93674635
C       -7.12087017       5.42689569       2.33069723
S       -7.54246815       6.68087233       1.21193756
C       -6.01714788       7.39006017       1.46207082
Br      -5.51022571       8.98857342       0.61570178
C       -5.18443286       6.71509408       2.32068131
C       -5.85470144       5.55661124       2.81172110
C       -6.95125258       2.66855441       4.77120954
O       -6.12072269       2.34918329       5.61747882
N       -8.15738678       2.02482952       4.69276476
C       -8.54647743       0.98782917       5.62124943
C       -9.98142430       0.56695194       5.39183508
C      -10.74330214       0.06244136       6.44257726
C      -12.05492471      -0.33263830       6.19101349
C      -12.56503963      -0.22803462       4.90239454
C      -11.74124396       0.27588513       3.91121879
N      -10.46913168       0.67803106       4.12425085
H       -1.19546969       3.62623961       0.82173993
H       -2.60931421       5.04992984       2.23689863
H       -3.99333847       1.55341551       4.36336283
H       -2.57160257       0.13708980       2.94143278
H       -3.82909693       5.26298530       4.42686949
H       -4.42046859       3.86470717       5.27540280
H       -8.72508725       3.94872905       2.77468945
H       -4.18389975       7.02901937       2.58546595
H       -8.78702325       2.16915128       3.91474709
H       -8.41429517       1.37735880       6.63715695
H       -7.88102484       0.12896489       5.48572597
H      -10.33214072      -0.01734591       7.44392459
H      -12.67443635      -0.72138406       6.99495595
H      -13.58018349      -0.53372897       4.67522267
H      -12.09229200       0.37087415       2.88758353
C        1.79167103      -1.79167103       1.79167103
C        2.97249819      -1.27854716       2.32100043
C        3.77874008      -2.08596208       3.12717009
C        3.41200676      -3.41151199       3.41091241
C        2.21762093      -3.90941507       2.86875620
C        1.41037442      -3.10362694       2.06092167
C        4.27605879      -4.27988293       4.29678208
N        3.93645562      -4.11365183       5.70328443
C        3.03548562      -4.83753752       6.47603255
C        2.98079280      -4.22771877       7.72777309
C        3.95340522      -3.19512064       7.72993723
S        4.60560313      -2.01342862       8.81624628
C        5.71165090      -1.54544308       7.61218488
Br       6.99896716      -0.20941380       7.90611996
C        5.59786480      -2.20785283       6.41449061
C        4.54827982      -3.16825273       6.50650124
C        2.32425410      -6.03394989       6.03281255
O        2.52828007      -6.59788161       4.96122311
N        1.41505515      -6.53279436       6.92713155
C        0.69420532      -7.76418957       6.69716114
C       -0.12089433      -8.14882870       7.91227695
C       -0.40938981      -9.48622513       8.17148544
C       -1.17810108      -9.80239906       9.28900192
C       -1.64822528      -8.78129424      10.10633058
C       -1.32465769      -7.47699501       9.77601056
N       -0.57243618      -7.13757218       8.70627760
H        3.27314194      -0.25472860       2.11557869
H        4.69636478      -1.66732789       3.53245002
H        1.90610208      -4.93298429       3.07103044
H        0.48920759      -3.50973298       1.65118458
H        5.33327581      -4.01636852       4.16930740
H        4.20742117      -5.33354493       4.01961246
H        2.36662316      -4.50995890       8.57192369
H        6.22045330      -2.02967620       5.54825557
H        1.12521299      -6.00570885       7.73999978
H        1.42614441      -8.54427231       6.45839419
H        0.03373431      -7.62730661       5.83467478
H       -0.03905690     -10.27429718       7.52347913
H       -1.41037203     -10.83879897       9.51958131
H       -2.25415867      -8.99652572      10.97931013
H       -1.67390853      -6.64447623      10.38018198
C       -0.00445707       0.01189536      -1.78238275
H       -0.66409135       0.67374010      -2.43557963
H        0.65740317      -0.63156657      -2.45157240
C       -0.90989263      -0.90692880      -0.91072765
C        0.90977584       0.90977584      -0.90977584
C       -0.00465871       1.77757030       0.00794375
H       -0.66225468       2.44313916      -0.64384735
H        0.64322798       2.43503045       0.67728295
C       -1.78241447       0.00034974      -0.00472694
H       -2.45427497      -0.65498947       0.64260836
H       -2.43311707       0.67328779      -0.65473579
C       -0.91132561       0.90220522       0.91563759
C       -0.01476271      -0.02253852       1.78660255
H       -0.67934791      -0.69751639       2.42135241
H        0.63392994       0.61504881       2.47327442
C        0.01484550      -1.77751727      -0.01636693
H        0.67870853      -2.42144646      -0.68295456
H       -0.62264859      -2.45592969       0.64226336
C        1.78714474       0.01002794       0.00389507
H        2.44202412       0.67113390       0.66197326
H        2.45385902      -0.65136977      -0.64189061
C        0.91606151      -0.90478549       0.90901405
