173
Properties=species:S:1:pos:R:3 pbc="F F F"
C        0.00000000       0.00000000       0.00000000
C        0.88176701       0.88176701      -0.88176701
C        1.93239752       0.31336961      -1.59656657
C        2.73878438       1.12076151      -2.40261430
C        2.50215938       2.50148593      -2.50107379
C        1.43769886       3.05476889      -1.77361237
C        0.63068475       2.24889378      -0.96563243
C        3.36443270       3.37235878      -3.38622024
N        2.86229696       3.40850046      -4.75288240
C        1.97639043       4.30825319      -5.33470000
C        1.71987356       3.85835487      -6.62834415
C        2.55922898       2.73698941      -6.85253263
S        2.95116138       1.62892210      -8.12548248
C        4.11473711       0.90989615      -7.11493353
C        4.20536826       1.43570484      -5.84942307
C        3.27167815       2.50485972      -5.71678385
C        1.46054199       5.51236635      -4.68839613
O        1.84029831       5.92241197      -3.59496244
N        0.52741897       6.20497438      -5.41287565
C       -0.01616072       7.46962156      -4.97238311
C       -0.90332191       8.07716498      -6.03665617
C       -1.05872412       9.45852256      -6.11881025
C       -1.89787263       9.98216154      -7.09929892
C       -2.56734782       9.11870244      -7.95833286
C       -2.36598601       7.75802902      -7.80659279
N       -1.55084922       7.21875357      -6.87379717
H        2.13089517      -0.75327649      -1.53611849
H        3.55353873       0.65871076      -2.95418112
H        1.22876156       4.12193885      -1.82970433
H       -0.18856847       2.69842079      -0.41056077
H        4.39100166       2.98648120      -3.41175679
H        3.44908904       4.38765641      -2.99412104
H        1.05799756       4.30027891      -7.36051721
H        4.89006032       1.09308351      -5.08552916
H        0.09431966       5.80999873      -6.23689117
H        0.82306320       8.13540500      -4.74063065
H       -0.59414881       7.30257326      -4.05757918
H       -0.53282687      10.12212568      -5.43970852
H       -2.03000729      11.05702000      -7.19128346
H       -3.23195753       9.49696441      -8.72695823
H       -2.87167910       7.04318910      -8.44952761
C        4.94576593      -0.17851502      -7.56030104
C        5.64175257      -1.09005938      -7.93329632
Br       6.76710410      -2.56394951      -8.53639815
C       -0.88176701      -0.88176701      -0.88176701
C       -2.26637638      -0.82736685      -0.74859047
C       -3.07224072      -1.63461802      -1.55530145
C       -2.50175384      -2.50200779      -2.50095746
C       -1.10440516      -2.54123408      -2.62044089
C       -0.29646417      -1.73538885      -1.81335793
C       -3.37439218      -3.36328219      -3.38533737
N       -3.77262430      -2.65627207      -4.59478345
C       -3.14998417      -2.63175057      -5.83760888
C       -3.84871423      -1.72532833      -6.63253002
C       -4.97254568      -1.29432899      -5.88187635
S       -6.36010541      -0.27421077      -6.07124978
C       -6.88538527      -0.73374589      -4.52043563
C       -6.05369865      -1.59246140      -3.84433612
C       -4.92880771      -1.90018425      -4.66432976
C       -1.99889229      -3.44850057      -6.21391159
O       -1.52082145      -4.33076204      -5.50608924
N       -1.49041408      -3.19496411      -7.45989080
C       -0.41727113      -3.97412935      -8.03444347
C       -0.16655561      -3.57257961      -9.47136402
C        0.35259906      -4.49250614     -10.37870161
C        0.58820129      -4.08294387     -11.68884526
C        0.31469609      -2.77016296     -12.05422061
C       -0.19214224      -1.91486803     -11.09162553
N       -0.44227810      -2.28334805      -9.81607538
H       -2.72785542      -0.16123608      -0.02464566
H       -4.15133274      -1.57737845      -1.43771942
H       -0.63241755      -3.20316745      -3.34481975
H        0.78394104      -1.78178651      -1.92256761
H       -4.28477352      -3.65641494      -2.84805118
H       -2.88154037      -4.30126448      -3.64806164
H       -3.62976414      -1.43738149      -7.65164805
H       -6.23916354      -1.97835702      -2.85115244
H       -1.76848928      -2.38104592      -7.99167434
H       -0.69653085      -5.03205223      -7.97051576
H        0.48842097      -3.81407327      -7.44035133
H        0.56514247      -5.51413582     -10.08001398
H        0.98442497      -4.78316212     -12.41955902
H        0.49398153      -2.42101913     -13.06492752
H       -0.41570957      -0.87821478     -11.32711326
C       -8.11954841      -0.25063905      -3.95736449
C       -9.15316004       0.15396293      -3.48579240
Br     -10.82442263       0.80817011      -2.72330023
C       -0.88176701       0.88176701       0.88176701
C       -0.56040285       1.05709938       2.22483146
C       -1.36778051       1.86353670       3.03084298
C       -2.50182898       2.50094388       2.50194624
C       -2.80791024       2.31237837       1.14579151
C       -2.00216671       1.50489802       0.33814623
C       -3.36603224       3.38684918       3.37013031
N       -2.87366378       4.75735182       3.39266422
C       -3.22219657       5.82454996       2.57259708
C       -2.39781679       6.89491088       2.91384491
C       -1.62857685       6.48660097       4.03357319
S       -0.44652929       7.14066318       5.11837348
C       -0.46785822       5.68098372       5.99072485
C       -1.29470803       4.70495384       5.49083431
C       -1.96030839       5.20115433       4.33185899
C       -4.28764836       5.80001205       1.57364404
O       -5.06891278       4.86445102       1.42430892
N       -4.39677513       6.93430334       0.81419052
C       -5.45461601       7.12348807      -0.15226012
C       -5.41712198       8.52184956      -0.72847229
C       -6.58462919       9.12417055      -1.19019106
C       -6.50988882      10.40522388      -1.73152487
C       -5.27750881      11.04292410      -1.81074543
C       -4.16256325      10.37361305      -1.33754049
N       -4.20261494       9.13605460      -0.79696802
H        0.31409010       0.57475227       2.65307499
H       -1.10012530       1.98950096       4.07680435
H       -3.68028650       2.79364194       0.70647630
H       -2.25784725       1.37248944      -0.70992360
H       -3.37553867       3.01247757       4.40122341
H       -4.40948427       3.37174767       3.04963455
H       -2.37534595       7.87849752       2.46495021
H       -1.42269594       3.72216431       5.92381275
H       -3.67863814       7.64624228       0.81632913
H       -6.40979118       6.93732754       0.35198012
H       -5.33208374       6.38776899      -0.95384911
H       -7.54059123       8.61416994      -1.12575384
H       -7.40724984      10.90200528      -2.09095895
H       -5.18750716      12.03748490      -2.23302694
H       -3.17682077      10.82779283      -1.38357599
C        0.33085371       5.48553849       7.17286716
C        0.99977494       5.32185311       8.16291134
Br       2.08136400       5.05718770       9.76372904
C        0.88176701      -0.88176701       0.88176701
C        0.33025003      -1.98512103       1.52696264
C        1.13746875      -2.79096702       2.33372442
C        2.50121193      -2.50130356       2.50220360
C        3.03805408      -1.38549258       1.84253348
C        2.23180994      -0.57732590       1.03607512
C        3.37826076      -3.38286665       3.36188432
N        3.93083706      -4.49373895       2.59910380
C        5.13798810      -4.56794607       1.91340944
C        5.16257568      -5.79341648       1.25058042
C        3.99971999      -6.50318327       1.64584776
S        3.26148193      -8.05022322       1.39386081
C        2.03217135      -7.61999953       2.48739592
C        2.12371512      -6.35426774       3.01251332
C        3.28655110      -5.71317684       2.49359377
C        6.17941479      -3.54397023       1.93791944
O        6.14959384      -2.54986764       2.65821123
N        7.24735721      -3.78314929       1.11476249
C        8.41234356      -2.92829357       1.08520683
C        9.49195949      -3.51558181       0.20295795
C       10.83316695      -3.23477657       0.45066517
C       11.79922660      -3.77746429      -0.39310306
C       11.40386403      -4.57002016      -1.46419671
C       10.05083334      -4.79525296      -1.64745050
N        9.08983723      -4.29320692      -0.84134263
H       -0.72217147      -2.22804715       1.40786148
H        0.68922261      -3.64883802       2.82836998
H        4.09201689      -1.13530470       1.95308316
H        2.66840589       0.28231560       0.53432279
H        2.79674772      -3.79839689       4.19409503
H        4.18485910      -2.81568133       3.83032605
H        5.93913911      -6.17673773       0.60291684
H        1.42474041      -5.92594212       3.71799047
H        7.22312294      -4.50800645       0.41008017
H        8.77243725      -2.81274026       2.11392134
H        8.11561801      -1.94527755       0.70510807
H       11.12884327      -2.61150825       1.28865581
H       12.85370342      -3.58167060      -0.21707785
H       12.13279762      -5.00068197      -2.14151448
H        9.69231994      -5.40249361      -2.47377594
C        0.96748157      -8.52511866       2.83495171
C        0.07580388      -9.28315594       3.12602969
Br      -1.36596352     -10.50883810       3.59667817
