165
Properties=species:S:1:pos:R:3 pbc="F F F"
C        0.00000000       0.00000000       0.00000000
C        0.88176701       0.88176701      -0.88176701
C        1.93239752       0.31336961      -1.59656657
C        2.73878438       1.12076151      -2.40261430
C        2.50215938       2.50148593      -2.50107379
C        1.43769886       3.05476889      -1.77361237
C        0.63068475       2.24889378      -0.96563243
C        3.36443270       3.37235878      -3.38622024
N        2.86229696       3.40850046      -4.75288240
C        1.97639043       4.30825319      -5.33470000
C        1.71987356       3.85835487      -6.62834415
C        2.55922898       2.73698941      -6.85253263
S        2.95116138       1.62892210      -8.12548248
C        4.11473711       0.90989615      -7.11493353
Br       5.19879395      -0.50990969      -7.69590459
C        4.20536826       1.43570484      -5.84942307
C        3.27167815       2.50485972      -5.71678385
C        1.46054199       5.51236635      -4.68839613
O        1.84029831       5.92241197      -3.59496244
N        0.52741897       6.20497438      -5.41287565
C       -0.01616072       7.46962156      -4.97238311
C       -0.90332191       8.07716498      -6.03665617
C       -1.05872412       9.45852256      -6.11881025
C       -1.89787263       9.98216154      -7.09929892
C       -2.56734782       9.11870244      -7.95833286
C       -2.36598601       7.75802902      -7.80659279
N       -1.55084922       7.21875357      -6.87379717
H        2.13089517      -0.75327649      -1.53611849
H        3.55353873       0.65871076      -2.95418112
H        1.22876156       4.12193885      -1.82970433
H       -0.18856847       2.69842079      -0.41056077
H        4.39100166       2.98648120      -3.41175679
H        3.44908904       4.38765641      -2.99412104
H        1.05799756       4.30027891      -7.36051721
H        4.89006032       1.09308351      -5.08552916
H        0.09431966       5.80999873      -6.23689117
H        0.82306320       8.13540500      -4.74063065
H       -0.59414881       7.30257326      -4.05757918
H       -0.53282687      10.12212568      -5.43970852
H       -2.03000729      11.05702000      -7.19128346
H       -3.23195753       9.49696441      -8.72695823
H       -2.87167910       7.04318910      -8.44952761
C       -0.88176701      -0.88176701      -0.88176701
C       -2.19307925      -1.15002604      -0.49922841
C       -2.99888200      -1.95707434      -1.30620385
C       -2.50153837      -2.50213755      -2.50104317
C       -1.17770922      -2.21896737      -2.86940354
C       -0.36958472      -1.41288950      -2.06273674
C       -3.37869028      -3.36179741      -3.38252404
N       -4.14492002      -2.55578491      -4.32297489
C       -3.81771539      -2.18056174      -5.62106648
C       -4.81868581      -1.32016526      -6.06772150
C       -5.81298441      -1.27894042      -5.05682619
S       -7.36577519      -0.56337226      -4.77641851
C       -7.45701892      -1.38969809      -3.29284978
Br      -8.95678357      -1.25857327      -2.16943200
C       -6.36217281      -2.15487709      -2.97344627
C       -5.40336465      -2.06526438      -4.02469268
C       -2.64920847      -2.65224362      -6.35985237
O       -1.88318200      -3.52150388      -5.95298685
N       -2.47254566      -2.08092793      -7.59179541
C       -1.42807495      -2.49844773      -8.49932127
C       -1.56601997      -1.80674247      -9.83773680
C       -1.10055647      -2.42002288     -10.99802934
C       -1.22721943      -1.74610346     -12.21026494
C       -1.79872790      -0.47936704     -12.23159254
C       -2.22915988       0.06476383     -11.03423975
N       -2.13109262      -0.56673358      -9.84387532
H       -2.59796284      -0.73604459       0.42027028
H       -4.02049415      -2.15429952      -0.99163694
H       -0.76355837      -2.62658442      -3.79026196
H        0.65318401      -1.20643421      -2.36716288
H       -4.08665967      -3.93308612      -2.76949386
H       -2.79698488      -4.11115727      -3.92272434
H       -4.87755334      -0.81772479      -7.02351555
H       -6.25951487      -2.73969175      -2.06946638
H       -2.99664271      -1.26529280      -7.87927404
H       -1.49707718      -3.58606352      -8.61595815
H       -0.45844942      -2.25450779      -8.05304641
H       -0.65301077      -3.40840174     -10.96759482
H       -0.88050674      -2.20565419     -13.13213525
H       -1.90463649       0.07188393     -13.15921255
H       -2.67636922       1.05412428     -10.99879267
C       -0.88176701       0.88176701       0.88176701
C       -0.62813518       0.96628118       2.24791734
C       -1.43548583       1.77279465       3.05387971
C       -2.50188312       2.50094029       2.50189569
C       -2.74024641       2.40306909       1.12276462
C       -1.93448822       1.59569608       0.31502665
C       -3.36514772       3.38656578       3.37129823
N       -2.80202737       4.72375709       3.49789535
C       -3.04573551       5.85146152       2.72214658
C       -2.18579347       6.85350017       3.16727894
C       -1.50430277       6.34273904       4.30170920
S       -0.35228367       6.86957359       5.48370870
C       -0.50133131       5.36875347       6.26948202
Br       0.43626637       4.97275901       7.84829620
C       -1.34967879       4.46940977       5.67140761
C       -1.92090503       5.06402210       4.50839458
C       -4.05260648       5.94101252       1.66768546
O       -4.87321471       5.06062073       1.42383728
N       -4.05747653       7.11877764       0.96901483
C       -5.04713590       7.41922361      -0.04051555
C       -4.90205505       8.84210734      -0.53366315
C       -6.00750083       9.53356681      -1.02245895
C       -5.83355908      10.83551697      -1.48548822
C       -4.56623292      11.40563914      -1.46218458
C       -3.51743397      10.64975829      -0.96855646
N       -3.65441607       9.38924410      -0.50195865
H        0.19352578       0.41284096       2.69442198
H       -1.22120051       1.82707757       4.11815254
H       -3.55922745       2.95590307       0.66527422
H       -2.13706162       1.53442261      -0.75107114
H       -3.45317988       2.95855396       4.37750581
H       -4.38805186       3.44787527       2.99493936
H       -2.08516365       7.85689571       2.77673432
H       -1.55455835       3.47364625       6.04046839
H       -3.30345437       7.78770704       1.05004814
H       -6.03797735       7.26074039       0.40038111
H       -4.91899717       6.72180959      -0.87480313
H       -6.99156275       9.07587338      -1.03842880
H       -6.68114572      11.40095229      -1.86380185
H       -4.39919869      12.41471810      -1.82195167
H       -2.50772094      11.04912523      -0.93580856
C        0.88176701      -0.88176701       0.88176701
C        0.31733522      -1.94672290       1.57827558
C        1.12458165      -2.75258427       2.38499427
C        2.50124056      -2.50127299       2.50220554
C        3.05093570      -1.42385182       1.79129261
C        2.24474387      -0.61569360       0.98477349
C        3.37759984      -3.38336552       3.36204637
N        3.87130211      -4.53412332       2.61825438
C        5.05324913      -4.66761641       1.89847807
C        5.01912516      -5.91304429       1.27440312
C        3.84812296      -6.57309178       1.72753628
S        3.05506249      -8.10295602       1.54754744
C        1.87485424      -7.60055515       2.66415740
Br       0.46543394      -8.72212875       3.19722615
C        2.02186654      -6.32282088       3.14580876
C        3.18681680      -5.73518236       2.57132255
C        6.12591099      -3.67691286       1.85848060
O        6.14951743      -2.66069486       2.54746043
N        7.15935514      -3.97502744       1.01088641
C        8.34854328      -3.15885924       0.91844144
C        9.38107571      -3.80692985       0.02249368
C       10.73746116      -3.56131824       0.21982929
C       11.65913933      -4.16004789      -0.63559938
C       11.20583428      -4.97221469      -1.66836149
C        9.84138928      -5.15995203      -1.80270551
N        8.92232619      -4.60314256      -0.98376723
H       -0.74530329      -2.15969758       1.49934287
H        0.66609100      -3.58019913       2.92014047
H        4.11506603      -1.20393418       1.86140453
H        2.69142473       0.21384106       0.44282941
H        2.81027374      -3.75446919       4.22449672
H        4.21570040      -2.82791456       3.78725152
H        5.76260950      -6.34052581       0.61565836
H        1.35911196      -5.85106243       3.85849861
H        7.09051707      -4.72006869       0.33062379
H        8.74446080      -3.02321857       1.93141947
H        8.07026830      -2.17907549       0.51665984
H       11.07858146      -2.92227738       1.02814848
H       12.72418766      -3.99247513      -0.49836662
H       11.89933972      -5.44639160      -2.35376620
H        9.43835578      -5.78062956      -2.59794773
