157
Properties=species:S:1:pos:R:3 pbc="F F F"
C        0.00000000       0.00000000       0.00000000
C        0.88171032       0.88171032      -0.88171032
C        1.44139025       2.04316899      -0.35480938
C        2.23336406       2.85553571      -1.16840377
C        2.46464749       2.51168182      -2.50876141
C        1.94442626       1.31410455      -3.01197206
C        1.13176599       0.51135233      -2.20385730
C        3.34471555       3.40788161      -3.30214018
O        4.35032767       3.83160093      -2.73076216
N        3.02445928       3.77701489      -4.60898148
C        1.81208200       3.45362088      -5.33665330
C        1.16515234       4.72479468      -5.86774971
N        2.04147164       5.49396790      -6.75361199
C        1.42011044       6.32799759      -7.76025283
C        2.13451250       6.82675917      -8.86147625
C        1.52185217       7.62905691      -9.83446354
C        0.17167511       7.94221026      -9.73669006
C       -0.55675904       7.45119941      -8.66182184
Br      -2.39752950       7.86337825      -8.51279033
C        0.05464432       6.65717304      -7.68501160
C        3.42278404       5.53928677      -6.48761646
O        4.22265984       6.26086887      -7.08952974
C        3.96757900       4.65817059      -5.31771886
H        4.33914310       5.38419919      -4.58132033
C        5.16609116       3.85117233      -5.83120879
H        1.27760625       2.32134726       0.68346014
H        2.68568089       3.75436758      -0.75132553
H        2.17199596       0.98978269      -4.02361536
H        0.70979903      -0.40593390      -2.60744363
H        1.08123787       2.94346828      -4.71036388
H        2.09124477       2.78439326      -6.15909061
H        0.27002491       4.40834747      -6.41529754
H        0.87429431       5.37958640      -5.03917164
H        3.18357674       6.59102631      -9.01548940
H        2.10924577       8.00307847     -10.66989451
H       -0.29642802       8.56378587     -10.49474370
H       -0.55790274       6.33515949      -6.84922456
H        4.85471816       3.14171445      -6.60543603
H        5.64228308       3.28021776      -5.02768764
H        5.92855308       4.50552198      -6.26715624
C       -0.88171032      -0.88171032      -0.88171032
C       -1.38068832      -0.37811150      -2.08056880
C       -2.19998972      -1.18121544      -2.87609838
C       -2.52478396      -2.48567636      -2.47463040
C       -1.97252360      -3.00118612      -1.29679315
C       -1.17014446      -2.18912466      -0.48770650
C       -3.37428299      -3.29078990      -3.38966445
O       -3.11740883      -3.20405229      -4.59122964
N       -4.42845539      -4.07001860      -2.91198168
C       -4.90892751      -4.14784316      -1.54558550
C       -6.40219124      -3.85736692      -1.49813857
N       -7.19684319      -4.77457948      -2.31762886
C       -8.56851882      -5.01613780      -1.92370424
C       -9.30339441      -6.10950188      -2.40985163
C      -10.62984645      -6.33810705      -2.01741912
C      -11.25166095      -5.48332986      -1.11558462
C      -10.54063834      -4.40177774      -0.61384614
Br     -11.36857099      -3.22829044       0.61822235
C       -9.21932841      -4.16689315      -1.01060740
C       -6.67176397      -5.24040530      -3.53751799
O       -7.30892276      -5.90478202      -4.35935366
C       -5.20372415      -4.84319023      -3.89655408
H       -5.30425617      -4.21083488      -4.78957157
C       -4.43938754      -6.11017415      -4.29891059
H       -1.13387346       0.62828432      -2.40990422
H       -2.57550918      -0.79361800      -3.82224682
H       -2.14895375      -4.03246075      -1.00397950
H       -0.76354696      -2.58681100       0.43904919
H       -4.40874847      -3.43300655      -0.89331502
H       -4.69590813      -5.15921827      -1.17960226
H       -6.69942444      -3.94719401      -0.44705146
H       -6.60409649      -2.83962798      -1.84932787
H       -8.86561450      -6.83428144      -3.09019651
H      -11.16976400      -7.19176302      -2.42069173
H      -12.27942291      -5.66715415      -0.81552450
H       -8.72899379      -3.28419147      -0.61329604
H       -4.35260178      -6.79818735      -3.45107952
H       -3.42710941      -5.87804356      -4.64503551
H       -4.95043368      -6.64263453      -5.10816309
C       -0.88171032       0.88171032       0.88171032
C       -0.83613322       2.26621069       0.73702470
C       -1.63121260       3.06999770       1.55609325
C       -2.46948586       2.49348184       2.52212303
C       -2.54987305       1.09997148       2.62065834
C       -1.73631363       0.29469625       1.81596574
C       -3.31006850       3.41155553       3.33311331
O       -3.83910630       4.34519892       2.72838554
N       -3.45695098       3.24317298       4.71033170
C       -2.78305990       2.27030570       5.54899057
C       -2.08250739       2.97074304       6.70444630
N       -2.99226997       3.75099148       7.54579008
C       -2.62689173       3.94923827       8.93223086
C       -3.55715331       4.36877748       9.89681713
C       -3.19452566       4.55216172      11.23868524
C       -1.89113370       4.30664091      11.65280082
C       -0.95714536       3.88091269      10.71820416
Br       0.82212160       3.53765319      11.26310749
C       -1.31484801       3.70528914       9.37669181
C       -4.07682794       4.42214626       6.95071308
O       -4.81832752       5.20841156       7.54631936
C       -4.32246814       4.19697920       5.42402111
H       -4.14842751       5.18360005       4.97263506
C       -5.79796063       3.83576540       5.21474625
H       -0.19693045       2.72931336      -0.01075044
H       -1.60891050       4.15176574       1.43069776
H       -3.24668191       0.62975781       3.30895429
H       -1.78472593      -0.78717484       1.91375767
H       -2.03352490       1.70304207       4.99850307
H       -3.54364372       1.57241566       5.91866927
H       -1.61056520       2.18187215       7.30123257
H       -1.31322967       3.65301408       6.32680861
H       -4.59931036       4.54460354       9.64617855
H       -3.94107023       4.88499402      11.95615450
H       -1.61761585       4.45019437      12.69429133
H       -0.53186339       3.40774381       8.68687411
H       -6.03520099       2.87747200       5.68919565
H       -6.04618063       3.75217943       4.15182842
H       -6.45833294       4.59411177       5.64878659
C        0.88171032      -0.88171032       0.88171032
C        1.50362460      -0.33441593       2.00132809
C        2.32226949      -1.13927053       2.79576353
C        2.52374439      -2.48939607       2.47195026
C        1.84957985      -3.04305209       1.37787093
C        1.04737346      -2.23151172       0.56809044
C        3.38128882      -3.29015556       3.38329296
O        3.22237072      -3.10038010       4.58993994
N        4.33931413      -4.17811935       2.89302217
C        4.70885099      -4.38741692       1.50608826
C        6.21096252      -4.21429838       1.33243584
N        6.99890264      -5.12912144       2.16102744
C        8.31671049      -5.50031990       1.69133047
C        9.00774307      -6.60920121       2.20580363
C       10.28158672      -6.96400383       1.73978207
C       10.89202454      -6.22376043       0.73479046
C       10.22271668      -5.12951724       0.20402830
Br      11.03562090      -4.11090843      -1.16789025
C        8.95475373      -4.76855274       0.67352249
C        6.53588605      -5.46749035       3.44631087
O        7.18505129      -6.11878967       4.26921749
C        5.13049754      -4.93664443       3.87632647
H        5.34205567      -4.25267794       4.70992901
C        4.31179848      -6.11115023       4.42552357
H        1.35340771       0.70829936       2.27038502
H        2.79421858      -0.71575903       3.68139638
H        1.93079442      -4.10265421       1.15194538
H        0.54526556      -2.66135928      -0.29531607
H        4.21224682      -3.68436988       0.83845333
H        4.39856299      -5.40301017       1.23315549
H        6.42114543      -4.39964929       0.27287520
H        6.50952650      -3.19257380       1.59095205
H        8.57278175      -7.24951170       2.96779900
H       10.78923887      -7.82556512       2.16741476
H       11.87885718      -6.50504911       0.37819527
H        8.49890471      -3.88141764       0.24615896
H        4.11342005      -6.84835051       3.64009809
H        3.34722074      -5.77975198       4.82321576
H        4.84381020      -6.62261344       5.23480766
