181
Properties=species:S:1:pos:R:3 pbc="F F F"
C        0.00000000       0.00000000       0.00000000
C        0.88157460       0.88157460      -0.88157460
C        0.43910648       1.25513594      -2.14844232
C        1.24762106       2.06187063      -2.95587075
C        2.50461417       2.49368852      -2.50472459
C        2.93368913       2.10585405      -1.22579216
C        2.12430569       1.30487589      -0.41457952
C        3.36279009       3.31658343      -3.34961522
N        2.95081932       3.93193043      -4.47013548
O        4.09758949       4.55490103      -4.94900024
C        5.09857980       4.25370517      -4.07457230
N        4.69809053       3.51197505      -3.06851273
C        6.45593200       4.77137600      -4.41083888
C        7.33898080       4.94465215      -3.16781560
C        7.85739924       3.61886184      -2.61147839
N        8.47091451       2.79701219      -3.65666708
C        7.64778516       2.56661427      -4.83994125
C        7.15029035       3.87683452      -5.44334562
C        9.51227830       1.89331600      -3.42149607
O        9.80456188       0.97639590      -4.18657379
C       10.29797699       1.99712150      -2.17666419
C       10.18943560       0.93287976      -1.27081898
C       10.92496348       0.94577930      -0.08414581
C       11.77062728       2.01825372       0.19640214
C       11.89920721       3.06793060      -0.71707393
C       11.17595401       3.05456587      -1.91352300
H       -0.52758730       0.92489921      -2.51973290
H        0.88982803       2.34109509      -3.94604618
H        3.90360126       2.42717381      -0.85187544
H        2.47347537       1.01668314       0.57330108
H        6.31785199       5.76395049      -4.85991920
H        6.80458143       5.49059830      -2.38167795
H        8.20244110       5.56110378      -3.44810729
H        8.56024189       3.82610159      -1.80272711
H        7.05059171       3.02579889      -2.16752051
H        8.21455934       2.02000076      -5.60165110
H        6.81026607       1.92433266      -4.54110443
H        8.01261372       4.42071728      -5.85024112
H        6.48466421       3.66182525      -6.28798762
H        9.54486872       0.08644720      -1.49850381
H       10.84547373       0.11537228       0.61455294
H       12.34653803       2.02766415       1.11896388
H       12.58129479       3.88478805      -0.49045246
C       11.39788239       4.13450661      -2.83984681
C       11.58374741       5.03895698      -3.61564300
Br      11.88427542       6.50137672      -4.87003983
C       -0.88157460      -0.88157460      -0.88157460
C       -2.03364293      -1.45767794      -0.35136387
C       -2.84019671      -2.26595581      -1.15920993
C       -2.49646962      -2.50825287      -2.49830479
C       -1.33110983      -1.92004076      -3.01418475
C       -0.52699058      -1.10654763      -2.21022289
C       -3.32051217      -3.36793031      -3.34054626
N       -4.56026610      -3.77291185      -3.01970729
O       -4.93002196      -4.58838466      -4.08308415
C       -3.87588456      -4.60425245      -4.94672025
N       -2.87132159      -3.85988185      -4.54737487
C       -4.01612070      -5.46778225      -6.15424393
C       -3.14517166      -4.98460314      -7.32167375
C       -1.66100062      -5.29580174      -7.13093711
N       -1.44405472      -6.70075204      -6.77978702
C       -2.21828244      -7.19203991      -5.64401832
C       -3.71097250      -6.93328225      -5.82621575
C       -0.29120368      -7.41613029      -7.11975640
O        0.05345784      -8.45713709      -6.56385231
C        0.60129154      -6.89830379      -8.17475044
C        1.88561472      -6.50181550      -7.77693357
C        2.79668111      -6.02845852      -8.72311118
C        2.42728847      -5.95423457     -10.06553276
C        1.15604715      -6.37270171     -10.46755718
C        0.24371176      -6.86060233      -9.52715231
H       -2.31335318      -1.28901755       0.68532593
H       -3.73496153      -2.71351438      -0.72849338
H       -1.04214535      -2.09147822      -4.04902695
H        0.37038758      -0.65868030      -2.62856471
H       -5.06459461      -5.40283909      -6.47428798
H       -3.27784092      -3.90948667      -7.48953008
H       -3.48821360      -5.49034372      -8.23309486
H       -1.12357111      -5.02434506      -8.04115441
H       -1.22311584      -4.69202394      -6.32877133
H       -2.06054917      -8.26761148      -5.50805055
H       -1.83674456      -6.69566884      -4.74328976
H       -4.07256182      -7.55709924      -6.65391106
H       -4.25106125      -7.25560009      -4.92781574
H        2.18099271      -6.57822924      -6.73258319
H        3.79584735      -5.72817007      -8.41397035
H        3.13737768      -5.58877704     -10.80383895
H        0.89448812      -6.32825615     -11.52276726
C       -1.02726237      -7.33247216     -10.01250128
C       -2.09170321      -7.72766314     -10.41898103
Br      -3.81281402      -8.36665353     -11.07622442
C       -0.88157460       0.88157460       0.88157460
C       -0.80023956       0.77444102       2.26800416
C       -1.60882779       1.58158923       3.07494542
C       -2.50727574       2.49459812       2.50115342
C       -2.57586216       2.58721472       1.10225845
C       -1.76386251       1.78595596       0.29394262
C       -3.36959920       3.32370862       3.33568092
N       -3.21033560       3.48275511       4.65979452
O       -4.26524755       4.31111244       5.02513078
C       -4.96779244       4.57217833       3.88688650
N       -4.45189468       4.00521293       2.82147070
C       -6.19406180       5.40717518       4.03690990
C       -6.55458855       6.15218904       2.74467096
C       -7.16582893       5.24269265       1.67921789
N       -8.26500454       4.44009176       2.21949748
C       -7.95351236       3.67674242       3.42408590
C       -7.38048820       4.56751297       4.52246932
C       -9.35764706       4.00982081       1.45962250
O      -10.09464666       3.08288961       1.78999530
C       -9.64527000       4.66001539       0.16647730
C       -9.50647845       3.86926278      -0.98260689
C       -9.78903469       4.40600868      -2.24015478
C      -10.21305315       5.72969272      -2.35026701
C      -10.37615403       6.51182710      -1.20376939
C      -10.10811944       5.97630808       0.05961536
H       -0.11677358       0.06813613       2.73213510
H       -1.53738265       1.48229821       4.15728844
H       -3.26355749       3.28704693       0.63204609
H       -1.83032647       1.87368447      -0.78715351
H       -5.97568239       6.16177025       4.80426904
H       -5.67850263       6.66606458       2.33229046
H       -7.28729799       6.92994794       2.99440624
H       -7.49499878       5.85565246       0.83841933
H       -6.42594310       4.54411808       1.27384993
H       -8.85139617       3.17868104       3.80613399
H       -7.24468309       2.88828006       3.14274001
H       -8.17086961       5.24812571       4.86457680
H       -7.09891337       3.95095676       5.38460695
H       -9.19477252       2.83051315      -0.89546594
H       -9.68814084       3.78874600      -3.13059377
H      -10.43660621       6.14774462      -3.32911253
H      -10.72961973       7.53551171      -1.30859615
C      -10.35348596       6.81345691       1.20529293
C      -10.55898042       7.51456906       2.16479790
Br     -10.89124758       8.64820811       3.71623628
C        0.88157460      -0.88157460       0.88157460
C        2.23854779      -1.00974758       0.59438936
C        3.04531561      -1.81828138       1.40176546
C        2.49947897      -2.50797417       2.49557414
C        1.12978679      -2.36730985       2.76823869
C        0.32291606      -1.55450715       1.96633788
C        3.32982661      -3.37047466       3.32868747
N        4.67258317      -3.38059540       3.29970666
O        5.01820598      -4.36642990       4.21685489
C        3.85029362      -4.86449353       4.71207012
N        2.78736924      -4.27762595       4.21358312
C        3.96425248      -5.98758514       5.68630927
C        2.75514924      -6.06848528       6.62781402
C        1.50542052      -6.63103973       5.95127923
N        1.78818772      -7.88552732       5.25087874
C        2.90257507      -7.84273200       4.30903360
C        4.17732237      -7.32465343       4.96849469
C        0.84682523      -8.90503461       5.07523052
O        0.95044188      -9.78950163       4.22758806
C       -0.36753210      -8.92584737       5.91344741
C       -1.59048854      -8.72520913       5.25841375
C       -2.78520028      -8.76000047       5.98008840
C       -2.75943977      -8.99829109       7.35362754
C       -1.54322547      -9.22350713       8.00393009
C       -0.34439299      -9.20365154       7.28478433
H        2.67927272      -0.49041713      -0.25264505
H        4.10343979      -1.91245788       1.16107163
H        0.68165742      -2.89073632       3.61025678
H       -0.73499603      -1.45703437       2.19481909
H        4.85104338      -5.78812244       6.30255587
H        2.53000639      -5.08664868       7.06020261
H        3.01971685      -6.72775903       7.46417630
H        0.72510562      -6.76083735       6.70312760
H        1.09997318      -5.93309927       5.21083866
H        3.09746172      -8.83977400       3.89897548
H        2.60251169      -7.20379074       3.46940073
H        4.51188750      -8.06551676       5.70616786
H        4.97224200      -7.24505534       4.21717974
H       -1.61257278      -8.55898408       4.18340843
H       -3.73433495      -8.61161702       5.46901100
H       -3.68978328      -9.02889397       7.91612761
H       -1.54576923      -9.43012351       9.07218101
C        0.86863248      -9.50280455       8.00079877
C        1.88454132      -9.75334520       8.60046086
Br       3.52717998     -10.15844824       9.57006375
