194
Properties=species:S:1:pos:R:3 pbc="F F F"
C        1.79147862       1.79147862      -1.79147862
C        1.34901051       2.16503996      -3.05834634
C        2.15752508       2.97177466      -3.86577477
C        3.41451819       3.40359255      -3.41462862
C        3.84359315       3.01575807      -2.13569618
C        3.03420972       2.21477991      -1.32448354
C        4.27269411       4.22648746      -4.25951925
N        3.86072334       4.84183446      -5.38003951
O        5.00749351       5.46480505      -5.85890427
C        6.00848382       5.16360920      -4.98447632
N        5.60799456       4.42187907      -3.97841675
C        7.36583603       5.68128003      -5.32074290
C        8.24888482       5.85455617      -4.07771963
C        8.76730327       4.52876586      -3.52138241
N        9.38081854       3.70691621      -4.56657111
C        8.55768918       3.47651830      -5.74984527
C        8.06019437       4.78673854      -6.35324965
C       10.42218232       2.80322002      -4.33140010
O       10.71446591       1.88629992      -5.09647782
C       11.20788102       2.90702553      -3.08656822
C       11.09933962       1.84278378      -2.18072301
C       11.83486750       1.85568332      -0.99404984
C       12.68053130       2.92815774      -0.71350189
C       12.80911124       3.97783463      -1.62697795
C       12.08585803       3.96446990      -2.82342703
Br      12.37842307       5.38814045      -4.04458657
H        0.38231672       1.83480323      -3.42963693
H        1.79973205       3.25099911      -4.85595020
H        4.81350528       3.33707784      -1.76177947
H        3.38337940       1.92658717      -0.33660294
H        7.22775602       6.67385452      -5.76982323
H        7.71448545       6.40050233      -3.29158197
H        9.11234513       6.47100781      -4.35801131
H        9.47014591       4.73600561      -2.71263113
H        7.96049573       3.93570292      -3.07742453
H        9.12446337       2.92990478      -6.51155512
H        7.72017009       2.83423669      -5.45100845
H        8.92251775       5.33062130      -6.76014514
H        7.39456823       4.57172928      -7.19789164
H       10.45477274       0.99635123      -2.40840783
H       11.75537776       1.02527631      -0.29535109
H       13.25644206       2.93756817       0.20905985
H       13.49119881       4.79469208      -1.40035648
C       -1.79147862      -1.79147862      -1.79147862
C       -1.73086184      -3.17727148      -1.66426350
C       -2.53795928      -3.98425856      -2.47285667
C       -3.40432056      -3.41145263      -3.41696617
C       -3.45043106      -2.01324838      -3.53136797
C       -2.64927853      -1.20459920      -2.71959544
C       -4.23258295      -4.24702688      -4.27909099
N       -4.43830580      -5.55992385      -4.08436766
O       -5.24504124      -5.93288698      -5.15327462
C       -5.44822958      -4.80998875      -5.89835101
N       -4.86390783      -3.74667573      -5.39770683
C       -6.24951705      -4.97307255      -7.14526937
C       -6.94180501      -3.67063803      -7.56871758
C       -5.98067942      -2.65350636      -8.18326577
N       -5.16222665      -3.25271783      -9.23936138
C       -4.44733926      -4.46970325      -8.86701024
C       -5.38962702      -5.52151864      -8.28903690
C       -4.67475936      -2.54140223     -10.34064086
O       -3.73656790      -2.92325642     -11.03741933
C       -5.27452991      -1.23866422     -10.68828063
C       -4.45241075      -0.11057981     -10.55985585
C       -4.94012617       1.15327295     -10.89774745
C       -6.24601577       1.29048654     -11.36666171
C       -7.05869682       0.16395159     -11.51917859
C       -6.57194613      -1.10615467     -11.19565416
Br      -7.71238237      -2.59137824     -11.50738948
H       -1.06092950      -3.64098651      -0.94484087
H       -2.47524179      -5.06633336      -2.36510621
H       -4.11357454      -1.54379054      -4.25499750
H       -2.70063719      -0.12396728      -2.82196504
H       -7.03438843      -5.70960014      -6.92744520
H       -7.46901547      -3.21513192      -6.72242235
H       -7.70422178      -3.91946036      -8.31768211
H       -6.55630404      -1.80513384      -8.55734477
H       -5.29266054      -2.24654444      -7.43441820
H       -3.93429756      -4.89511140      -9.73651431
H       -3.67249502      -4.19038611      -8.14253410
H       -6.05614746      -5.86743257      -9.08970416
H       -4.80962416      -6.39282746      -7.96173753
H       -3.42700240      -0.21965401     -10.21287540
H       -4.29835717       2.02708996     -10.80473794
H       -6.62579218       2.27413306     -11.63329126
H       -8.06721253       0.28890912     -11.90794395
C       -1.79147862       1.79147862       1.79147862
C       -2.81455044       2.54161123       1.21623514
C       -3.62107562       3.34974110       2.02425779
C       -3.40540304       3.41784253       3.40949379
C       -2.36880679       2.65569150       3.97054912
C       -1.56563887       1.84228732       3.16554698
C       -4.22791163       4.27530911       4.25548007
N       -5.37793472       4.84508555       3.85957704
O       -5.78013080       5.58647988       4.96459215
C       -4.83186043       5.39934227       5.92536663
N       -3.86842680       4.59177141       5.54809217
C       -5.01828086       6.14846800       7.20111010
C       -4.33452959       5.45788317       8.38874786
C       -2.81478982       5.62018070       8.38248102
N       -2.42139108       7.02039748       8.21251730
C       -3.01220051       7.70513059       7.06672165
C       -4.53419361       7.59648319       7.06950576
C       -1.24780232       7.56619717       8.74280295
O       -0.74168760       8.61278236       8.34277368
C       -0.53374053       6.85016624       9.81756799
C        0.74081968       6.35544791       9.50821818
C        1.48973137       5.69217369      10.48215835
C        0.96834163       5.52596161      11.76457095
C       -0.29155922       6.04054493      12.08181966
C       -1.04091637       6.71776593      11.11507265
Br      -2.70663344       7.45476543      11.64975122
H       -2.99308773       2.50910448       0.14456466
H       -4.41354538       3.93434507       1.55879092
H       -2.18063719       2.69010312       5.04162227
H       -0.76924472       1.25832138       3.61900341
H       -6.09697900       6.16852420       7.40593057
H       -4.59142514       4.39274263       8.42240198
H       -4.72433256       5.90518183       9.31184986
H       -2.41124571       5.20153062       9.30600632
H       -2.35307411       5.05454681       7.56600227
H       -2.73400828       8.76476738       7.06714762
H       -2.58458244       7.26176666       6.15906613
H       -4.92129746       8.17093646       7.92105027
H       -4.93660939       8.06454400       6.16303576
H        1.15621607       6.50232946       8.51341842
H        2.48207737       5.31533916      10.24274336
H        1.55229905       5.01235809      12.52489133
H       -0.67153239       5.92044606      13.09426891
C        1.79147862      -1.79147862       1.79147862
C        3.11224233      -1.42321987       2.03693462
C        3.91953825      -2.23177841       2.84375785
C        3.41377686      -3.41531609       3.40364641
C        2.08087236      -3.77034876       3.14382629
C        1.27032487      -2.96021560       2.34293270
C        4.25599420      -4.27500584       4.22770077
N        5.44787125      -3.90820380       4.72652226
O        5.88971104      -5.04078313       5.40070867
C        4.92445434      -5.98974703       5.24236797
N        3.89523875      -5.56673448       4.54631715
C        5.20108696      -7.32821490       5.83855709
C        3.91480404      -8.09691333       6.16944325
C        3.22088155      -8.66483598       4.93173402
N        4.15180864      -9.41567400       4.08682322
C        5.36990196      -8.70602790       3.70812289
C        6.10790071      -8.16370192       4.92857994
C        3.77233784     -10.49810866       3.28635594
O        4.44053972     -10.91457995       2.34212398
C        2.48587744     -11.17488582       3.54071150
C        1.51009354     -11.07327473       2.53947815
C        0.27800535     -11.71126301       2.69533231
C        0.02150073     -12.45280684       3.84788336
C        1.00229003     -12.57598972       4.83564407
C        2.24317580     -11.95100181       4.67957734
Br       3.54719543     -12.23419270       6.02976196
H        3.52554159      -0.51477902       1.60643627
H        4.95170951      -1.93297562       3.02199624
H        1.66403468      -4.68242933       3.56589858
H        0.24035978      -3.25127051       2.15493922
H        5.73492472      -7.15419478       6.78231426
H        3.21425271      -7.46485607       6.72746096
H        4.17915384      -8.93278792       6.82942249
H        2.38207708      -9.28572542       5.25098016
H        2.79152119      -7.87085386       4.31124813
H        6.04377292      -9.36842196       3.15372839
H        5.08322572      -7.89636901       3.02582050
H        6.49256659      -9.01355132       5.50716629
H        6.97909887      -7.58317561       4.60191467
H        1.71711568     -10.51124163       1.63117449
H       -0.47568701     -11.63778354       1.91390862
H       -0.93671154     -12.95290839       3.96875353
H        0.79131066     -13.17755056       5.71738615
C       -0.00445707       0.01189536      -1.78238275
H       -0.66409135       0.67374010      -2.43557963
H        0.65740317      -0.63156657      -2.45157240
C       -0.90989263      -0.90692880      -0.91072765
C        0.90977584       0.90977584      -0.90977584
C       -0.00465871       1.77757030       0.00794375
H       -0.66225468       2.44313916      -0.64384735
H        0.64322798       2.43503045       0.67728295
C       -1.78241447       0.00034974      -0.00472694
H       -2.45427497      -0.65498947       0.64260836
H       -2.43311707       0.67328779      -0.65473579
C       -0.91132561       0.90220522       0.91563759
C       -0.01476271      -0.02253852       1.78660255
H       -0.67934791      -0.69751639       2.42135241
H        0.63392994       0.61504881       2.47327442
C        0.01484550      -1.77751727      -0.01636693
H        0.67870853      -2.42144646      -0.68295456
H       -0.62264859      -2.45592969       0.64226336
C        1.78714474       0.01002794       0.00389507
H        2.44202412       0.67113390       0.66197326
H        2.45385902      -0.65136977      -0.64189061
C        0.91606151      -0.90478549       0.90901405
