89
Properties=species:S:1:pos:R:3 pbc="F F F"
C        0.00000000       0.00000000       0.00000000
C        0.68504195       2.52816540      -6.76423147
C        1.43086659       2.65498903      -5.45792720
O        2.46689440       3.30773351      -5.39609227
N        0.83528476       1.94918086      -4.42810690
C        1.27372739       1.84889154      -3.09000730
C        0.51718653       1.04616992      -2.23072249
C        0.88960115       0.88960115      -0.88960115
C        2.04474254       1.49929724      -0.37458807
N        2.34009819       1.44852901       1.00340066
C        2.76192176       2.34416462      -1.23887453
C        2.39533849       2.50366280      -2.58293771
H        1.20345569       1.80761049      -7.40207865
H        0.65892801       3.50411977      -7.25709172
H       -0.34639436       2.19751241      -6.61521223
H       -0.00324026       1.43102243      -4.65996854
H       -0.37321749       0.53993978      -2.59485734
H        3.31545949       1.65033747       1.21109132
H        1.99836378       0.60661835       1.45960852
H        2.99818521       3.15415720      -3.20882590
C        3.92200418       3.05832008      -0.77219394
C        4.89357320       3.65642528      -0.38134895
Br       6.46451814       4.62351080       0.25061434
C       -6.67639583      -2.78916684      -0.51187615
C       -5.40111762      -2.82379729      -1.31886791
O       -5.33329653      -3.49432951      -2.34309414
N       -4.38685588      -2.07175723      -0.75395940
C       -3.07437726      -1.89533582      -1.24291315
C       -2.21006473      -1.10755394      -0.47646027
C       -0.88960115      -0.88960115      -0.88960115
C       -0.38178781      -1.47790339      -2.05893665
N        0.90217527      -1.14774027      -2.53966155
C       -1.27994836      -2.22211473      -2.84289781
C       -2.60251778      -2.44548113      -2.43394011
H       -6.76001544      -3.71548551       0.06235613
H       -7.52775401      -2.69985344      -1.19253205
H       -6.70234159      -1.93860966       0.17462098
H       -4.60144982      -1.60490936       0.11860848
H       -2.55772648      -0.65027321       0.44642006
H        1.27252418      -1.83288371      -3.19434611
H        1.55840498      -0.90018961      -1.80358898
H       -3.24569076      -3.04461417      -3.07086337
C       -0.85725927      -2.80555056      -4.08970837
C       -0.50325715      -3.29417807      -5.13391221
Br       0.06913433      -4.08424742      -6.82230151
C       -1.26859200       1.79665114       6.91219568
C       -1.81706262       2.17036037       5.55635983
O       -2.75353757       2.95598800       5.46119461
N       -1.17731913       1.51647459       4.51877880
C       -1.44524163       1.62995987       3.13742474
C       -0.68057668       0.83983291       2.27366935
C       -0.88960115       0.88960115       0.88960115
C       -1.88894195       1.70087005       0.32881585
N       -2.00502481       1.84897489      -1.06877316
C       -2.61063207       2.52675670       1.20757214
C       -2.40739590       2.48029676       2.59424635
H       -1.94596154       1.08135697       7.38582632
H       -1.19459186       2.69715178       7.52839587
H       -0.27174945       1.35314597       6.84143486
H       -0.44202312       0.86957962       4.77614796
H        0.08984369       0.18258426       2.66883907
H       -2.91480825       2.19952822      -1.35963084
H       -1.70613960       1.02800515      -1.58877114
H       -3.00775132       3.12739254       3.22602445
C       -3.60909013       3.43593402       0.70749405
C       -4.44529876       4.19737002       0.28867865
Br      -5.79737739       5.42854764      -0.38851043
C        6.84413283      -2.22421391       0.90909208
C        5.51189184      -2.44970299       1.58218799
O        5.41918522      -3.21988601       2.53164895
N        4.48335107      -1.73902739       0.99019406
C        3.12186585      -1.72769893       1.36306145
C        2.25632993      -0.94875707       0.58899194
C        0.88960115      -0.88960115       0.88960115
C        0.33989481      -1.63127331       1.94745973
N       -1.00752385      -1.46421398       2.32853641
C        1.23320587      -2.36572865       2.74602638
C        2.60217797      -2.43047124       2.44928980
H        7.06777017      -3.07934804       0.26602662
H        7.61924096      -2.12647364       1.67442489
H        6.84797431      -1.31206592       0.30629005
H        4.72792508      -1.17251006       0.18731556
H        2.63819782      -0.37506896      -0.25168715
H       -1.36603412      -2.23975291       2.88098685
H       -1.61700534      -1.20536909       1.55700986
H        3.24162703      -3.02937894       3.09016234
C        0.76056139      -3.10257127       3.88938554
C        0.36472164      -3.71967696       4.84694883
Br      -0.27531775      -4.71748467       6.39524768
