102
Properties=species:S:1:pos:R:3 pbc="F F F"
C        1.59494597       3.43806943      -7.67413549
C        2.34077061       3.56489306      -6.36783122
O        3.37679842       4.21763753      -6.30599630
N        1.74518879       2.85908488      -5.33801092
C        2.18363141       2.75879557      -3.99991133
C        1.42709056       1.95607394      -3.14062652
C        1.79950517       1.79950517      -1.79950517
C        2.95464656       2.40920127      -1.28449210
N        3.25000221       2.35843304       0.09349663
C        3.67182578       3.25406865      -2.14877855
Br       5.20648496       4.19881637      -1.53141238
C        3.30524252       3.41356683      -3.49284174
H        2.11335971       2.71751451      -8.31198268
H        1.56883203       4.41402380      -8.16699575
H        0.56350966       3.10741644      -7.52511625
H        0.90666376       2.34092645      -5.56987257
H        0.53668654       1.44984381      -3.50476136
H        4.22536351       2.56024149       0.30118729
H        2.90826780       1.51652237       0.54970449
H        3.90808923       4.06406122      -4.11872992
C       -7.34585631      -4.24959357      -1.11170101
C       -6.15206000      -4.09829136      -2.02314354
O       -6.12263837      -4.67090838      -3.10688550
N       -5.15710775      -3.30628745      -1.47888939
C       -3.91488383      -2.96898820      -2.05846628
C       -3.05313784      -2.17235076      -1.29830242
C       -1.79950517      -1.79950517      -1.79950517
C       -1.35385699      -2.23772744      -3.05675549
N       -0.15213623      -1.75121512      -3.61158726
C       -2.25447560      -2.99277973      -3.82741765
Br      -1.78665284      -3.56784797      -5.58221291
C       -3.51012659      -3.37083773      -3.33068676
H       -7.29772986      -5.22480311      -0.62032393
H       -8.26083200      -4.18205544      -1.70696414
H       -7.38005709      -3.46601064      -0.34997462
H       -5.32895153      -2.93649646      -0.55201478
H       -3.35156026      -1.82856533      -0.31116611
H        0.21274629      -2.34161049      -4.35555352
H        0.54593186      -1.50719621      -2.91382133
H       -4.15643861      -3.97084327      -3.96359849
C       -1.51924850       3.54897765       7.63892474
C       -2.29068429       3.63836136       6.34444924
O       -3.33945754       4.27109319       6.28988152
N       -1.70090265       2.92462389       5.31675804
C       -2.16146460       2.79192353       3.98895018
C       -1.40592738       1.98733242       3.13053122
C       -1.79950517       1.79950517       1.79950517
C       -2.97472631       2.37874403       1.29486959
N       -3.29387554       2.29739415      -0.07633107
C       -3.69159793       3.22626775       2.15680730
Br      -5.25420137       4.13173343       1.55077891
C       -3.30385030       3.41697237       3.49082842
H       -2.01278300       2.83102318       8.29905071
H       -1.50216805       4.53412092       8.11356261
H       -0.48477196       3.23428019       7.47699020
H       -0.84897297       2.42599488       5.54249492
H       -0.49997196       1.50398872       3.48733102
H       -4.27635769       2.47775624      -0.26969622
H       -2.94502790       1.45354891      -0.52349113
H       -3.90715601       4.06787369       4.11585068
C        7.56777309      -3.74840386       1.39097394
C        6.29877784      -3.76637066       2.20834639
O        6.23384281      -4.42816034       3.23842910
N        5.28603485      -3.01073590       1.64551385
C        3.97896936      -2.81989810       2.14347084
C        3.11483292      -2.03133213       1.37762596
C        1.79950517      -1.79950517       1.79950517
C        1.29642547      -2.37438318       2.97753128
N        0.01903181      -2.03010790       3.46579891
C        2.19489522      -3.11951367       3.76026409
Br       1.64285361      -3.87366338       5.42019672
C        3.51231913      -3.35673748       3.34259447
H        7.63940263      -4.67990677       0.82354750
H        8.42525119      -3.66050978       2.06409060
H        7.59497964      -2.90357548       0.69748724
H        5.49732878      -2.55258803       0.76754596
H        3.45870616      -1.58421944       0.44836610
H       -0.35149412      -2.70702212       4.12888971
H       -0.64109283      -1.78316686       2.73301165
H        4.15579262      -3.95592310       3.97916466
C       -0.00445707       0.01189536      -1.78238275
H       -0.66409135       0.67374010      -2.43557963
H        0.65740317      -0.63156657      -2.45157240
C       -0.90989263      -0.90692880      -0.91072765
C        0.90977584       0.90977584      -0.90977584
C       -0.00465871       1.77757030       0.00794375
H       -0.66225468       2.44313916      -0.64384735
H        0.64322798       2.43503045       0.67728295
C       -1.78241447       0.00034974      -0.00472694
H       -2.45427497      -0.65498947       0.64260836
H       -2.43311707       0.67328779      -0.65473579
C       -0.91132561       0.90220522       0.91563759
C       -0.01476271      -0.02253852       1.78660255
H       -0.67934791      -0.69751639       2.42135241
H        0.63392994       0.61504881       2.47327442
C        0.01484550      -1.77751727      -0.01636693
H        0.67870853      -2.42144646      -0.68295456
H       -0.62264859      -2.45592969       0.64226336
C        1.78714474       0.01002794       0.00389507
H        2.44202412       0.67113390       0.66197326
H        2.45385902      -0.65136977      -0.64189061
C        0.91606151      -0.90478549       0.90901405
