137
Properties=species:S:1:pos:R:3 pbc="F F F"
C        0.00000000       0.00000000       0.00000000
O       -0.39475440       0.33291675      -2.82150520
C        0.65255524       1.01039533      -2.25663476
C        0.88688229       0.88688229      -0.88688229
C        1.94488349       1.57749062      -0.28067642
C        2.79717073       2.40551090      -1.03124500
C        2.55080894       2.50961825      -2.41742025
C        1.49053375       1.82337573      -3.02078612
I        1.20055919       2.05498465      -5.07852581
C        3.96610385       3.20113474      -0.40085365
C        3.61269157       4.70587438      -0.54780475
C        4.13502083       2.96248809       1.12372512
C        5.30993964       2.80703394      -1.06038341
C        6.17146260       3.74455990      -1.65611979
C        7.39204218       3.34997134      -2.22283307
C        7.78010934       2.01059869      -2.20420638
O        8.98211758       1.65407480      -2.75516167
C        6.93713078       1.06330129      -1.62233448
I        7.45425226      -0.96150933      -1.55954732
C        5.71719419       1.45551572      -1.05897276
H       -0.41306091       0.54528214      -3.77147257
H        2.08622190       1.45627623       0.79011367
H        3.19897991       3.13598605      -3.02993475
H        3.55472480       5.02298004      -1.59514676
H        4.35399480       5.34432560      -0.05269241
H        2.63986789       4.92767592      -0.09140101
H        4.31795818       1.90882187       1.36643873
H        3.24560151       3.27878593       1.68228472
H        4.98500500       3.53291276       1.51991695
H        5.91207003       4.80064132      -1.68578802
H        9.09188052       0.69318829      -2.64147664
H        5.07018051       0.70399622      -0.60974890
C        8.22434967       4.36576667      -2.81361568
C        8.92140719       5.21649525      -3.30839613
Br      10.04849024       6.59205142      -4.10841426
O       -2.84120018      -0.23474584       0.31627848
C       -2.26524385      -0.96748275      -0.68685872
C       -0.88688229      -0.88688229      -0.88688229
C       -0.27266705      -1.61741381      -1.91296966
C       -1.02231327      -2.45003164      -2.76158171
C       -2.41397229      -2.52680481      -2.53707034
C       -3.02696117      -1.79259584      -1.51513860
I       -5.09678790      -1.96395612      -1.27332563
C       -0.38897584      -3.26034043      -3.91877597
C       -0.95592519      -2.67157229      -5.23887323
C        1.15180665      -3.10246227      -4.02312819
C       -0.66604879      -4.77261972      -3.73868848
C       -1.29268584      -5.55611934      -4.72333711
C       -1.50481724      -6.92896654      -4.53106280
C       -1.09293431      -7.54980444      -3.35217566
O       -1.30270536      -8.89393491      -3.19471378
C       -0.47362034      -6.78913941      -2.36000680
I        0.16873323      -7.65321412      -0.56780935
C       -0.26398976      -5.41815866      -2.54953426
H       -3.79986906      -0.40373804       0.29991329
H        0.80275278      -1.51927668      -2.03586056
H       -3.02298639      -3.17062055      -3.17129376
H       -2.03990265      -2.80606621      -5.32688273
H       -0.49550595      -3.13709359      -6.11841327
H       -0.76020814      -1.59396457      -5.30477211
H        1.66958825      -3.41988980      -3.11003977
H        1.43813433      -2.06180291      -4.21843415
H        1.55505969      -3.70808397      -4.84497654
H       -1.62281476      -5.11453552      -5.66114909
H       -0.94391239      -9.15480438      -2.32782867
H        0.21968572      -4.83836540      -1.76524595
C       -2.15101976      -7.66851786      -5.58419440
C       -2.69221437      -8.28789209      -6.46619210
Br      -3.56728029      -9.28936783      -7.89230780
O       -1.37665618      -0.94800854       2.33101989
C       -1.53771466       0.37303950       2.00883117
C       -0.88688229       0.88688229       0.88688229
C       -1.02526397       2.23760183       0.54018472
C       -1.82194368       3.10650174       1.30548121
C       -2.48099574       2.56598085       2.43087085
C       -2.33778324       1.21786217       2.77905019
I       -3.34403128       0.51727526       4.47276310
C       -1.98866076       4.60879897       0.97063251
C       -1.33198507       5.40108640       2.13329924
C       -1.23295454       5.05179330      -0.31096404
C       -3.48076621       4.95281491       0.74377587
C       -4.15074231       5.95615781       1.46524216
C       -5.49791562       6.25348306       1.21344790
C       -6.20450560       5.55704844       0.23336037
O       -7.51608048       5.87484889       0.00042467
C       -5.55953826       4.55381402      -0.49058574
I       -6.55697110       3.46893732      -1.97361817
C       -4.21570389       4.25410345      -0.23812466
H       -1.88779448      -1.12468535       3.14058468
H       -0.49512429       2.59569895      -0.33843877
H       -3.11408490       3.21058904       3.04022677
H       -1.84132059       5.24122449       3.09030651
H       -1.33363366       6.47993909       1.93744007
H       -0.28605679       5.10024725       2.27264078
H       -1.55972692       4.50300266      -1.20238826
H       -0.15062385       4.90374390      -0.21226503
H       -1.39579461       6.11782552      -0.51561932
H       -3.63587035       6.52947925       2.23314977
H       -7.84116950       5.30295580      -0.71757986
H       -3.72713851       3.46770588      -0.81091876
C       -6.11820400       7.29543660       1.99009142
C       -6.63769551       8.16807270       2.64053036
Br      -7.47766935       9.57905145       3.69223512
O        2.03714656      -1.74266770      -1.02014672
C        1.86169120      -1.72023906       0.33765506
C        0.88688229      -0.88688229       0.88688229
C        0.69327593      -0.83591332       2.27386127
C        1.46772507      -1.62101236       3.14518919
C        2.44181560      -2.46577177       2.57026007
C        2.63771948      -2.51187273       1.18510340
I        4.11583740      -3.78525298       0.43297927
C        1.30109657      -1.58310154       4.68389413
C        2.61503219      -0.99038542       5.26095310
C        0.17148053      -0.63457669       5.16772658
C        0.95804736      -2.99096555       5.22834408
C        1.71916740      -3.63124257       6.22173232
C        1.36148117      -4.89810456       6.70526086
C        0.23392977      -5.55183507       6.20914957
O       -0.09883314      -6.78364402       6.70654318
C       -0.53231952      -4.93592461       5.21916146
I       -2.23451325      -5.85766786       4.42913564
C       -0.17462375      -3.67269519       4.73361123
H        2.75954883      -2.36404259      -1.21989761
H       -0.07327448      -0.16787997       2.65777897
H        3.05287884      -3.09474796       3.21727391
H        3.48515731      -1.62600822       5.06168606
H        2.55211425      -0.85204088       6.34685769
H        2.82885960      -0.00756069       4.82252452
H       -0.80978053      -0.90832363       4.76179821
H        0.36761188       0.40555381       4.88004465
H        0.08095902      -0.65561106       6.26143073
H        2.60178463      -3.15429354       6.64242120
H       -0.91157991      -7.07920183       6.25892353
H       -0.78233963      -3.20603808       3.96022718
C        2.18707594      -5.49186506       7.72479101
C        2.87851156      -5.98913949       8.57864752
Br       3.99650448      -6.79319018       9.95926127
