150
Properties=species:S:1:pos:R:3 pbc="F F F"
O        0.51514962       1.24282077      -3.73140922
C        1.56245926       1.92029935      -3.16653878
C        1.79678631       1.79678631      -1.79678631
C        2.85478751       2.48739464      -1.19058044
C        3.70707475       3.31541492      -1.94114902
C        3.46071296       3.41952228      -3.32732427
C        2.40043778       2.73327975      -3.93069015
I        2.11046321       2.96488867      -5.98842983
C        4.87600788       4.11103876      -1.31075767
C        4.52259560       5.61577841      -1.45770877
C        5.04492485       3.87239212       0.21382110
C        6.21984367       3.71693796      -1.97028744
C        7.08136662       4.65446392      -2.56602381
C        8.30194621       4.25987536      -3.13273709
Br       9.39908882       5.59889052      -3.91150311
C        8.69001336       2.92050272      -3.11411040
O        9.89202161       2.56397882      -3.66506569
C        7.84703480       1.97320532      -2.53223850
I        8.36415628      -0.05160531      -2.46945135
C        6.62709822       2.36541975      -1.96887679
H        0.49684312       1.45518617      -4.68137660
H        2.99612593       2.36618025      -0.11979036
H        4.10888394       4.04589008      -3.93983877
H        4.46462882       5.93288406      -2.50505078
H        5.26389882       6.25422962      -0.96259644
H        3.54977191       5.83757994      -1.00130503
H        5.22786220       2.81872589       0.45653471
H        4.15550554       4.18868995       0.77238070
H        5.89490903       4.44281678       0.61001293
H        6.82197405       5.71054535      -2.59569204
H       10.00178454       1.60309231      -3.55138066
H        5.98008453       1.61390024      -1.51965292
O       -2.97488819      -2.62144952       0.10695810
C       -2.78552649      -2.61462837      -1.24914254
C       -1.79678631      -1.79678631      -1.79678631
C       -1.58869036      -1.76190815      -3.18216408
C       -2.36227083      -2.54799325      -4.05337462
C       -3.35066814      -3.37698212      -3.47990926
C       -3.56099338      -3.40698817      -2.09642612
I       -5.05952106      -4.65766427      -1.34659638
C       -2.17975259      -2.52744580      -5.59060592
C       -3.48169297      -1.92741721      -6.18697260
C       -1.03570731      -1.59534267      -6.07244589
C       -1.84559242      -3.94417306      -6.11730358
C       -2.60313829      -4.58682921      -7.11188686
C       -2.25352035      -5.86209583      -7.57894248
Br      -3.33612172      -6.64742360      -8.92593713
C       -1.13775024      -6.52207734      -7.06479890
O       -0.81255603      -7.76218440      -7.54632570
C       -0.37528964      -5.90387163      -6.07331736
I        1.30936815      -6.83463976      -5.25673072
C       -0.72497452      -4.63221652      -5.60420371
H       -3.70556259      -3.23343845       0.30559516
H       -0.81153929      -1.10558745      -3.56496980
H       -3.96155127      -4.00632280      -4.12673872
H       -4.36021533      -2.55216748      -5.99018085
H       -3.40641855      -1.80078643      -7.27351990
H       -3.68990618      -0.93806929      -5.76068141
H       -0.06143098      -1.87482299      -5.65379941
H       -1.22412180      -0.55040940      -5.79728359
H       -0.93437749      -1.62843232      -7.16490307
H       -3.47656150      -4.10531309      -7.54633685
H       -0.00741945      -8.06134877      -7.08748930
H       -0.12036703      -4.16385681      -4.82941386
O       -1.20449072       0.54518694       3.73970195
C       -1.90729865       1.57264725       3.16935149
C       -1.79678631       1.79678631       1.79678631
C       -2.49623396       2.84786059       1.18866805
C       -3.32697571       3.69801515       1.93864784
C       -3.43437189       3.44907607       3.32411155
C       -2.73114724       2.40210892       3.93115152
I       -2.94631449       2.12501886       5.99244837
C       -4.10336238       4.88202347       1.31241846
C       -3.50095133       6.17987857       1.91525288
C       -3.91429663       5.01208641      -0.22288716
C       -5.62373350       4.72558449       1.55775108
C       -6.40049726       5.71308865       2.18826845
C       -7.78047837       5.54302777       2.37105252
Br      -8.74529773       6.93340869       3.23077602
C       -8.41526138       4.38404903       1.92531607
O       -9.76584149       4.24828625       2.10693839
C       -7.66160365       3.38932485       1.30155011
I       -8.54659881       1.62617879       0.60922473
C       -6.28358714       3.55662869       1.12117892
H       -1.39134575       0.54687162       4.69518851
H       -2.37539054       2.98890829       0.11779771
H       -4.07770489       4.08395227       3.93295561
H       -3.65436613       6.25018803       2.99800950
H       -3.94114154       7.07654891       1.46303443
H       -2.41877508       6.22891629       1.74096551
H       -4.23880382       4.11501899      -0.76376942
H       -2.86491813       5.19287853      -0.48598187
H       -4.49670095       5.85268274      -0.62167080
H       -5.94784850       6.63601158       2.54435136
H      -10.03597160       3.39336375       1.72692217
H       -5.70943717       2.77061948       0.63358105
O        2.67800960      -2.92386834      -0.11249833
C        2.63701071      -2.76533657       1.24695012
C        1.79678631      -1.79678631       1.79678631
C        1.74311543      -1.60564228       3.18400488
C        2.52597396      -2.38213326       4.05553147
C        3.36200428      -3.36417886       3.48137638
C        3.41855678      -3.55055795       2.09529294
I        4.69952788      -5.02175812       1.34249572
C        2.51253882      -2.19319939       5.59206610
C        3.92301034      -1.68157421       5.99149822
C        1.52264787      -1.10128144       6.07956656
C        2.10117542      -3.50806288       6.29783076
C        2.89532556      -4.12895405       7.27757475
C        2.47596940      -5.30796547       7.91062378
Br       3.61579137      -6.07079642       9.22289466
C        1.25273260      -5.89094676       7.58094712
O        0.86250574      -7.03639034       8.22217005
C        0.45168294      -5.29341999       6.60737570
I       -1.39319590      -6.11252617       6.06267205
C        0.87053418      -4.11818872       5.97267185
H        3.32033566      -3.62717722      -0.31410700
H        1.07888690      -0.83562443       3.56758520
H        3.97496079      -3.98984127       4.12981072
H        4.71058973      -2.41321706       5.77875687
H        3.97754755      -1.44287775       7.06029958
H        4.17911819      -0.76632780       5.44321089
H        0.48655550      -1.31371349       5.78978440
H        1.78079115      -0.11425966       5.67676398
H        1.53655847      -1.01725202       7.17390240
H        3.85290604      -3.70424452       7.57106088
H       -0.01245314      -7.29036809       7.87834256
H        0.23443570      -3.66488948       5.21431252
C       -0.00445707       0.01189536      -1.78238275
H       -0.66409135       0.67374010      -2.43557963
H        0.65740317      -0.63156657      -2.45157240
C       -0.90989263      -0.90692880      -0.91072765
C        0.90977584       0.90977584      -0.90977584
C       -0.00465871       1.77757030       0.00794375
H       -0.66225468       2.44313916      -0.64384735
H        0.64322798       2.43503045       0.67728295
C       -1.78241447       0.00034974      -0.00472694
H       -2.45427497      -0.65498947       0.64260836
H       -2.43311707       0.67328779      -0.65473579
C       -0.91132561       0.90220522       0.91563759
C       -0.01476271      -0.02253852       1.78660255
H       -0.67934791      -0.69751639       2.42135241
H        0.63392994       0.61504881       2.47327442
C        0.01484550      -1.77751727      -0.01636693
H        0.67870853      -2.42144646      -0.68295456
H       -0.62264859      -2.45592969       0.64226336
C        1.78714474       0.01002794       0.00389507
H        2.44202412       0.67113390       0.66197326
H        2.45385902      -0.65136977      -0.64189061
C        0.91606151      -0.90478549       0.90901405
