189
Properties=species:S:1:pos:R:3 pbc="F F F"
C        0.00000000       0.00000000       0.00000000
C        0.88238394       0.88238394      -0.88238394
C        0.32525735       1.98434407      -1.53403875
C        1.13300490       2.80129252      -2.32639309
C        2.48933417       2.49432093      -2.47283025
C        3.04599669       1.38395104      -1.82699151
C        2.23792193       0.57996273      -1.02279096
C        3.34200509       3.36146976      -3.31569025
O        3.39852124       4.55714395      -3.06241955
N        3.92750914       2.69834853      -4.36889828
C        4.77157880       3.25719879      -5.34343271
C        5.64056535       4.29519173      -4.96250258
C        6.52045325       4.89557984      -5.87389246
C        7.39414046       5.92239948      -5.47625991
C        8.25447481       6.52140160      -6.39602058
C        8.25128254       6.10093944      -7.72172950
C        7.39350060       5.07583050      -8.12697270
C        6.52490576       4.45730861      -7.20974742
C        5.65563650       3.41589224      -7.59029641
C        4.78279921       2.78982684      -6.67443063
N        3.92438876       1.80664505      -7.25943415
C        3.05217666       0.92217721      -6.65694440
O        3.01860638       0.65254134      -5.45968107
C        2.09995544       0.20028606      -7.55414138
C        1.71476775       0.69068931      -8.80939561
C        0.79747216      -0.02335283      -9.59021789
C        0.25244266      -1.21495835      -9.11161701
C        0.60622385      -1.69895064      -7.85574893
C        1.52591122      -0.99017559      -7.07928583
H       -0.73118188       2.21730943      -1.42759663
H        0.71194552       3.66460524      -2.83369685
H        4.10328538       1.15683097      -1.93659874
H        2.67323920      -0.27343394      -0.50943931
H        3.53909071       1.78178976      -4.58675372
H        5.65293092       4.63334972      -3.92919566
H        7.40365970       6.26479936      -4.44301093
H        8.92266180       7.31748806      -6.07456438
H        8.91524560       6.57144484      -8.44118444
H        7.40885243       4.76302842      -9.16869861
H        5.66932674       3.09612730      -8.62849489
H        4.00893646       1.72398096      -8.26213411
H        2.08373627       1.63931575      -9.18888633
H        0.50316927       0.36400689     -10.56266027
H        0.17256398      -2.61655937      -7.46776371
H        1.78815238      -1.37084130      -6.09176013
C       -0.69196911      -1.94462455      -9.91739221
C       -1.48291396      -2.55571998     -10.59222893
Br      -2.76180489      -3.54380962     -11.68338284
C       -0.88238394      -0.88238394      -0.88238394
C       -1.06903611      -0.54925771      -2.22534635
C       -1.86043514      -1.36325788      -3.03699748
C       -2.47291209      -2.49457348      -2.48899977
C       -2.29341623      -2.82342621      -1.14009679
C       -1.48800445      -2.01569982      -0.33697135
C       -3.31321009      -3.35381552      -3.35213949
O       -2.82439988      -3.82257009      -4.37111476
N       -4.61517656      -3.45841001      -2.92116938
C       -5.64479803      -4.18726935      -3.54014291
C       -5.31737932      -5.39040868      -4.19047166
C       -6.28983028      -6.17924285      -4.82085243
C       -5.95088102      -7.38717026      -5.45474856
C       -6.92553170      -8.15557336      -6.09079193
C       -8.24821895      -7.72578577      -6.09994677
C       -8.59860684      -6.53138294      -5.46631403
C       -7.62825137      -5.74889119      -4.81481923
C       -7.95600832      -4.54454857      -4.16126826
C       -6.98734927      -3.75555312      -3.50415430
N       -7.49459473      -2.53239522      -2.96347801
C       -6.87506707      -1.59534517      -2.16088603
O       -5.81682881      -1.75476700      -1.55923299
C       -7.58415839      -0.29292423      -1.97730027
C       -8.52035015       0.20135984      -2.89586236
C       -9.13032251       1.44267722      -2.67669192
C       -8.79344980       2.19688272      -1.55253423
C       -7.84580685       1.72963379      -0.64684909
C       -7.24178574       0.48867006      -0.86190580
H       -0.60042865       0.33548787      -2.64878340
H       -2.00830414      -1.11728673      -4.08465674
H       -2.76388587      -3.70999603      -0.72283318
H       -1.33656396      -2.27922962       0.70654900
H       -4.90824217      -2.77396411      -2.22542790
H       -4.28702707      -5.73768534      -4.19076388
H       -4.91876610      -7.73307007      -5.45963382
H       -6.64778513      -9.08655603      -6.58037308
H       -9.00746266      -8.31908683      -6.60132539
H       -9.63933143      -6.21549056      -5.48575748
H       -8.99454460      -4.22582614      -4.17357819
H       -8.46775151      -2.35855529      -3.16874472
H       -8.76763245      -0.33924636      -3.80505953
H       -9.85513094       1.81956284      -3.39426832
H       -7.56419949       2.31894023       0.22149095
H       -6.49185883       0.13606081      -0.15327318
C       -9.42194370       3.47367261      -1.33252746
C       -9.94830735       4.54298415      -1.14827179
Br     -10.79939284       6.27197046      -0.85034595
C       -0.88238394       0.88238394       0.88238394
C       -0.29252878       1.82995912       1.72115227
C       -1.09738430       2.64846212       2.51484408
C       -2.48676566       2.49605383       2.47366586
C       -3.07779398       1.53949153       1.63965373
C       -2.26974862       0.73502511       0.83590188
C       -3.33665359       3.36407661       3.31843490
O       -3.23088881       4.57809353       3.20910239
N       -4.11575230       2.66686918       4.21213447
C       -5.00694258       3.21535538       5.14991234
C       -5.70416907       4.38741986       4.80667072
C       -6.61841427       4.98816304       5.68334825
C       -7.31944783       6.15160462       5.32174739
C       -8.21558278       6.74766882       6.20864539
C       -8.42092448       6.18788613       7.46514087
C       -7.73632734       5.02725275       7.83272372
C       -6.83448456       4.41064371       6.94683352
C       -6.13730593       3.23520915       7.28931007
C       -5.23226802       2.61049022       6.40429844
N       -4.56452707       1.47152645       6.95441444
C       -3.72673769       0.55779850       6.34676208
O       -3.57617688       0.41832277       5.13632914
C       -2.97624756      -0.36898677       7.24712209
C       -2.69675959      -0.06943265       8.58752572
C       -1.96558979      -0.97149488       9.37024231
C       -1.49924945      -2.16157577       8.81142763
C       -1.74698228      -2.45859143       7.47463130
C       -2.48162077      -1.56190702       6.69530772
H        0.78805106       1.94178796       1.75998728
H       -0.65007961       3.39306684       3.16710116
H       -4.15896229       1.43318757       1.60456523
H       -2.72929407       0.00261068       0.17733981
H       -3.85932223       1.69133179       4.35698016
H       -5.55272314       4.83523952       3.82751364
H       -7.16473850       6.60325316       4.34347833
H       -8.74842100       7.64998898       5.91630425
H       -9.11280048       6.65496201       8.16011239
H       -7.91338106       4.60692646       8.82027194
H       -6.31304755       2.80819549       8.27270589
H       -4.77994299       1.29096157       7.92414696
H       -3.00377884       0.87018178       9.03797771
H       -1.75230428      -0.73158346      10.40911560
H       -1.37172334      -3.37461761       7.02666258
H       -2.66069900      -1.79750255       5.64587475
C       -0.74609677      -3.08509864       9.61980042
C       -0.11533141      -3.85854904      10.29681262
Br       0.90456284      -5.10915293      11.39148410
C        0.88238394      -0.88238394       0.88238394
C        1.22086627      -0.45502759       2.16774631
C        2.01222709      -1.26712433       2.98133909
C        2.47256628      -2.49303186       2.49088721
C        2.14099389      -2.91732021       1.19862513
C        1.33599181      -2.10941777       0.39526604
C        3.31337821      -3.35017933       3.35560757
O        2.88341478      -3.68300919       4.45166077
N        4.55594782      -3.61176832       2.82703981
C        5.57294272      -4.37796599       3.42130159
C        5.20629471      -5.48570289       4.20626206
C        6.16253431      -6.30510582       4.82228542
C        5.78251118      -7.41791762       5.59237104
C        6.74319819      -8.21677549       6.21192331
C        8.09274685      -7.91273003       6.06847460
C        8.48299116      -6.81437695       5.29893570
C        7.52632581      -6.00325720       4.66237878
C        7.89311187      -4.89463223       3.87408105
C        6.93815981      -4.07769664       3.23120024
N        7.49510686      -2.95750661       2.53785448
C        6.88555777      -2.03856589       1.70717461
O        5.76621157      -2.14942301       1.21519422
C        7.68271461      -0.82814826       1.34352001
C        8.73897033      -0.34678121       2.12910114
C        9.42928909       0.80921713       1.74426526
C        9.05465734       1.49310972       0.58755369
C        7.99054032       1.04072326      -0.18679491
C        7.30577257      -0.11582807       0.19342082
H        0.87067842       0.50229163       2.54533738
H        2.27733941      -0.94774258       3.98516563
H        2.49344837      -3.87609717       0.82716955
H        1.06622778      -2.44553353      -0.60251674
H        4.84016042      -3.01925176       2.04822200
H        4.15464700      -5.73429722       4.32653207
H        4.72965945      -7.66459128       5.71721926
H        6.43402156      -9.07282682       6.80786586
H        8.84211171      -8.52929465       6.55646852
H        9.54409487      -6.59620256       5.20028203
H        8.95162167      -4.67405365       3.76827361
H        8.49438918      -2.85815316       2.64250918
H        9.02289523      -0.82873072       3.06031239
H       10.24715640       1.17669448       2.35937450
H        7.68050994       1.57765476      -1.07908687
H        6.46588501      -0.45612432      -0.41293813
C        9.76628998       2.68250267       0.19701124
C       10.36228232       3.67861926      -0.13006807
Br      11.32595152       5.28925554      -0.65892764
