193
Properties=species:S:1:pos:R:3 pbc="F F F"
C        0.00000000       0.00000000       0.00000000
C        0.87169402       0.87169402      -0.87169402
C        2.01785997       0.43029217      -1.48139140
C        2.63555799       1.47460244      -2.23774407
C        1.93379610       2.66824927      -2.16663290
S        0.51987786       2.49136589      -1.20009148
C        2.20653570       3.97140923      -2.77065582
O        1.31703282       4.78836521      -2.99181280
N        3.55165517       4.19528345      -3.03828889
C        4.13804607       5.35986394      -3.58382609
C        3.41469632       6.46938845      -4.02306859
C        4.07159959       7.59312800      -4.53642545
C        5.46747076       7.62770608      -4.62534343
C        6.19501030       6.51039484      -4.19964077
C        5.53521929       5.38950704      -3.68231455
C        6.16610056       8.83499256      -5.20923574
C        6.33935726       8.86309398      -6.71491967
C        5.85981476       7.86525057      -7.57095028
C        6.05286164       7.95497385      -8.95362216
C        6.73127066       9.04110043      -9.51596763
C        7.20651864      10.04213862      -8.67200491
C        7.01087791       9.95411921      -7.28767986
N        6.87584052       9.04562913     -10.91584540
C        7.50369574       9.98475110     -11.71576392
O        8.08513888      10.98105517     -11.29676618
C        7.41012522       9.71465812     -13.15145465
C        7.79163951      10.56344015     -14.17853533
C        7.54847201      10.01054353     -15.47127861
C        7.00873665       8.75441596     -15.37462483
S        6.78539638       8.24087374     -13.77764302
H        2.39691047      -0.58094095      -1.40275826
H        3.53939875       1.33330230      -2.81757067
H        4.20024614       3.48028481      -2.74110220
H        2.33078442       6.50244755      -3.98668266
H        3.47835864       8.44061544      -4.87548221
H        7.28085026       6.50532973      -4.27034548
H        6.13598795       4.54403337      -3.35722577
H        7.15771044       8.92045964      -4.74461431
H        5.61131159       9.73379007      -4.90719823
H        5.32604921       7.00051814      -7.18338003
H        5.66109562       7.15721883      -9.57965139
H        7.73125693      10.91229867      -9.05338633
H        7.39094103      10.75540421      -6.65602180
H        6.45431046       8.26927104     -11.41029060
H        8.21452397      11.54649318     -13.99987026
H        7.76182960      10.51585035     -16.40536205
C        6.66099202       7.94724633     -16.51530483
C        6.36975589       7.27124176     -17.47062433
Br       5.89885171       6.17819956     -19.01529517
C       -0.87169402      -0.87169402      -0.87169402
C       -0.37749860      -1.76163716      -1.79040778
C       -1.43489978      -2.44286922      -2.47013550
C       -2.68961809      -2.03750531      -2.04155487
S       -2.55971528      -0.85159767      -0.80002229
C       -4.02367732      -2.46020822      -2.46471520
O       -5.00367051      -2.36197317      -1.73156714
N       -4.07121718      -2.94952488      -3.76448544
C       -5.20800508      -3.40103010      -4.47270092
C       -6.48660467      -3.49825174      -3.92229695
C       -7.56589829      -3.93944577      -4.69580898
C       -7.38663190      -4.29746642      -6.03642195
C       -6.10251386      -4.21544322      -6.58708882
C       -5.02566154      -3.76936939      -5.81200995
C       -8.55378447      -4.80131447      -6.85522992
C       -8.85202688      -6.28564535      -6.77969868
C       -8.13763929      -7.18179782      -5.97657851
C       -8.46765788      -8.54106891      -5.95273087
C       -9.51681900      -9.04007364      -6.73144608
C      -10.23740346      -8.15419667      -7.52906204
C       -9.90912983      -6.79253115      -7.55101600
N       -9.77596503     -10.42037677      -6.64097324
C      -10.73874982     -11.16307461      -7.30238633
O      -11.52181990     -10.70963014      -8.13151019
C      -10.77904211     -12.57589569      -6.92130018
C      -11.74042781     -13.50390887      -7.28927832
C      -11.50376962     -14.79554007      -6.73098446
C      -10.36019322     -14.80204886      -5.97553535
S       -9.58311091     -13.29967051      -5.92113173
H        0.67755538      -1.92801205      -1.96827111
H       -1.26464778      -3.20619804      -3.21942590
H       -3.21434019      -2.90953824      -4.29775472
H       -6.69018018      -3.24190641      -2.88782804
H       -8.54995798      -4.00903031      -4.23546800
H       -5.93249300      -4.50070412      -7.62332835
H       -4.04508499      -3.71444382      -6.27771828
H       -8.38021769      -4.53575638      -7.90681032
H       -9.45346075      -4.25079042      -6.54804873
H       -7.31325983      -6.84387718      -5.35281037
H       -7.88628935      -9.19949058      -5.31218592
H      -11.06728396      -8.48344641      -8.14621156
H      -10.49471933      -6.12576015      -8.18188755
H       -9.19398757     -10.94223343      -5.99765109
H      -12.58470068     -13.25325215      -7.92293458
H      -12.14260141     -15.65693383      -6.88350676
C       -9.86490078     -15.96793651      -5.29070589
C       -9.45009336     -16.94436741      -4.71716122
Br      -8.77938485     -18.52317360      -3.78978799
C       -0.87169402       0.87169402       0.87169402
C       -1.00467279       2.22553066       0.69934009
C       -1.88961188       2.78560709       1.67268554
C       -2.38852075       1.83265861       2.54749890
S       -1.79086718       0.26660844       2.15385962
C       -3.30344246       1.96502839       3.68012990
O       -3.99023949       1.02846577       4.07850556
N       -3.29558200       3.22636283       4.26328268
C       -4.03543334       3.65919041       5.38711235
C       -4.97746904       2.87528409       6.05440022
C       -5.65740220       3.37172656       7.17202428
C       -5.41173990       4.66627517       7.64250520
C       -4.47847413       5.46035743       6.96621435
C       -3.79655971       4.95927983       5.85120134
C       -6.17348075       5.20381533       8.83303278
C       -7.51456052       5.85178707       8.55102332
C       -8.08261670       5.93840477       7.27499415
C       -9.32699341       6.54892337       7.08554088
C      -10.03400539       7.09026127       8.16407205
C       -9.47905436       7.00293222       9.43867559
C       -8.23435983       6.38908881       9.62922833
N      -11.27772168       7.68286669       7.87672668
C      -12.16524942       8.29206771       8.74689363
O      -11.97074557       8.44296726       9.94924740
C      -13.40874593       8.74574436       8.12174769
C      -14.53341947       9.22700885       8.77318667
C      -15.58944332       9.56555600       7.87529483
C      -15.21764969       9.34555677       6.57457099
S      -13.64526507       8.73938581       6.41926226
H       -0.50750039       2.79044283      -0.07921545
H       -2.15304685       3.83578221       1.70144266
H       -2.63141870       3.89333361       3.89688084
H       -5.21779115       1.86630935       5.73581412
H       -6.39006325       2.73696945       7.66742359
H       -4.27823212       6.47563004       7.30266331
H       -3.07548353       5.60502512       5.35673843
H       -5.53750242       5.93458239       9.35069959
H       -6.32881701       4.38022358       9.54325930
H       -7.57305922       5.53305480       6.40383336
H       -9.72993522       6.59127634       6.07675428
H       -9.98694281       7.39668908      10.31331005
H       -7.83028218       6.33334598      10.63873887
H      -11.57487600       7.64947135       6.90952475
H      -14.59224030       9.31573173       9.85291538
H      -16.55670096       9.94593462       8.18040643
C      -16.07638777       9.60013086       5.44702456
C      -16.79558091       9.81333665       4.50270443
Br     -17.95845539      10.15807240       2.97581864
C        0.87169402      -0.87169402       0.87169402
C        2.12915962      -0.51456333       1.28582058
C        2.71624346      -1.53685264       2.09480841
C        1.88033848      -2.63100390       2.25733589
S        0.38345861      -2.38512634       1.44275029
C        2.07867032      -3.88138563       2.98854480
O        1.13798018      -4.54719154       3.41203910
N        3.41285427      -4.24401239       3.12836085
C        3.92843063      -5.40469514       3.74861033
C        3.14621206      -6.35531412       4.40562718
C        3.73176782      -7.48844636       4.98093886
C        5.11451771      -7.69134503       4.91465753
C        5.90348289      -6.73205555       4.26950747
C        5.31424979      -5.60181305       3.69097804
C        5.74074932      -8.90413962       5.56543992
C        6.10125341      -8.78325929       7.03285820
C        5.85168362      -7.64158321       7.80274879
C        6.20892967      -7.59790410       9.15462389
C        6.82621901      -8.69117858       9.77094112
C        7.07274211      -9.83408312       9.01383693
C        6.71253534      -9.87929599       7.66084564
N        7.14757145      -8.55539692      11.13434667
C        7.76217710      -9.47041069      11.97162297
O        8.16833526     -10.57406311      11.62056186
C        7.88464084      -9.02947393      13.36212322
C        8.29590325      -9.79814131      14.43957044
C        8.28473058      -9.07561223      15.66995135
C        7.88304023      -7.77980104      15.47493617
S        7.51654803      -7.42633891      13.86102620
H        2.60723211       0.42424537       1.03574104
H        3.69709330      -1.44772347       2.54545495
H        4.09487813      -3.65640378       2.67035123
H        2.06988028      -6.25308185       4.49695249
H        3.09461712      -8.20893446       5.49090472
H        6.98293802      -6.85822345       4.21536400
H        5.96037906      -4.88268964       3.19417839
H        6.64848118      -9.16814250       5.00616072
H        5.05349138      -9.75282203       5.44598649
H        5.37419483      -6.76515286       7.37059969
H        5.99366677      -6.69070149       9.71359759
H        7.53992798     -10.71540587       9.44160808
H        6.91514617     -10.78911490       7.09810597
H        6.88369107      -7.68038475      11.56979628
H        8.57814989     -10.84115648      14.34158105
H        8.55735443      -9.49486671      16.63082087
C        7.77818236      -6.81059362      16.53476720
C        7.69036390      -5.99888241      17.42237568
Br       7.54836887      -4.68641403      18.85756353
