182
Properties=species:S:1:pos:R:3 pbc="F F F"
C        1.79111554       1.79111554      -1.79111554
C        3.17290377       1.77663279      -1.62249349
C        3.97617517       2.58386927      -2.43225441
C        3.40209615       3.41534980      -3.40717498
C        2.01034128       3.42020732      -3.56699805
C        1.20742295       2.60577760      -2.75989161
C        4.31373870       4.26178042      -4.23811692
O        5.51626886       4.00011474      -4.22509635
C        3.70620328       5.42143075      -5.01360023
S        4.92995509       6.29532716      -6.03325220
C        5.28543105       5.06490044      -7.21708961
S        6.62239441       5.11180670      -8.28774881
N        6.20131437       3.67275433      -9.02784478
C        5.09237738       3.25333743      -8.41916755
S        4.35694892       1.74433619      -8.92386654
C        3.51213879       1.29459960      -7.38853992
C        2.87008086      -0.06791268      -7.52521993
O        1.66002505      -0.17686993      -7.73002140
C        3.69956237      -1.30879112      -7.38300618
C        5.08113832      -1.28047296      -7.15138627
C        5.80170545      -2.47459928      -7.03224481
C        5.14449975      -3.69873961      -7.13881861
C        3.77187712      -3.74294887      -7.36467105
C        3.05226885      -2.55071765      -7.48740501
N        4.53014854       4.00385807      -7.39872916
H        3.63537501       1.14492193      -0.86775411
H        5.05634280       2.56564033      -2.29111582
H        1.51646559       4.03319693      -4.31473930
H        0.12813895       2.61228986      -2.89650099
H        3.30022166       6.13953650      -4.29445467
H        2.90011447       5.07315553      -5.66414999
H        2.71496716       2.01816438      -7.18292013
H        4.18493742       1.30914513      -6.52532843
H        5.63384209      -0.34943749      -7.06698883
H        6.87481415      -2.43697720      -6.86026754
H        3.25146520      -4.69360794      -7.44990725
H        1.97931685      -2.59804639      -7.66805457
C        5.89040346      -4.92431067      -7.01551719
C        6.51509782      -5.95072643      -6.91225224
Br       7.52517577      -7.61035389      -6.74528156
C       -1.79111554      -1.79111554      -1.79111554
C       -3.11529642      -1.43116987      -2.02556376
C       -3.91827997      -2.23997476      -2.83404413
C       -3.40472808      -3.41591606      -3.40397679
C       -2.07042405      -3.76654294      -3.16057967
C       -1.26517150      -2.95168419      -2.35623647
C       -4.31547354      -4.24387862      -4.25428386
O       -5.36883163      -3.73543270      -4.63721562
C       -3.90616663      -5.67771190      -4.55735573
S       -5.07559516      -6.51694716      -5.66599212
C       -4.80545202      -5.62299914      -7.13896995
S       -5.83689685      -5.67898034      -8.50607272
N       -4.87805917      -4.63309346      -9.39076085
C       -3.85498356      -4.30957619      -8.60032259
S       -2.63351162      -3.20004366      -9.19159637
C       -2.04929798      -2.53020148      -7.61577885
C       -1.03596752      -1.43382345      -7.85759714
O        0.17024149      -1.65140079      -7.73201721
C       -1.49289409      -0.05429257      -8.22659078
C       -2.84255356       0.28332732      -8.39282539
C       -3.20582900       1.58909407      -8.74261604
C       -2.22380045       2.56131116      -8.92208946
C       -0.87928573       2.24210766      -8.75642122
C       -0.51559603       0.93730877      -8.41066896
N       -3.76140509      -4.84560387      -7.32572681
H       -3.53310805      -0.52810846      -1.58683455
H       -4.95348773      -1.94951696      -3.01009426
H       -1.61949793      -4.65692692      -3.58797697
H       -0.22847161      -3.22972248      -2.17873572
H       -3.88435004      -6.23444249      -3.61542030
H       -2.91381035      -5.70963630      -5.01397333
H       -1.55221224      -3.32121701      -7.04262241
H       -2.86911491      -2.15526230      -6.99503376
H       -3.63958515      -0.44372874      -8.26807953
H       -4.25683066       1.83449251      -8.87576634
H       -0.10673724       2.99425909      -8.89528634
H        0.53986762       0.69857747      -8.28777012
C       -2.60281080       3.90312669      -9.28192587
C       -2.92023196       5.02689719      -9.58328887
Br      -3.43347514       6.84393905     -10.07056735
C       -1.79111554       1.79111554       1.79111554
C       -3.16808148       1.81611091       1.58783766
C       -3.97141984       2.62318334       2.39769567
C       -3.40189590       3.41521496       3.40751006
C       -2.01498464       3.38056508       3.60199694
C       -1.21224592       2.56624692       2.79459932
C       -4.31310163       4.26369571       4.23683870
O       -5.52104788       4.03321653       4.18721554
C       -3.69688339       5.38779856       5.05655231
S       -4.92413336       6.26699753       6.06740355
C       -5.34022810       5.01696078       7.21023222
S       -6.70250383       5.07131564       8.24813044
N       -6.33640203       3.60400826       8.96150319
C       -5.22307231       3.17170129       8.37010875
S       -4.53855421       1.63232452       8.85427293
C       -3.66628423       1.19952403       7.32947005
C       -3.06203698      -0.18191335       7.44726449
O       -1.86069028      -0.32678709       7.67927332
C       -3.91824699      -1.39728960       7.25282004
C       -5.29232735      -1.32795790       6.98768218
C       -6.03911749      -2.49996620       6.82019968
C       -5.41551945      -3.74275692       6.91181621
C       -4.05063504      -3.82759750       7.17056176
C       -3.30494203      -2.65754804       7.34156223
N       -4.61647218       3.93279238       7.38347121
H       -3.62671663       1.21539263       0.80594181
H       -5.04775173       2.63605160       2.22929562
H       -1.52525235       3.96194657       4.37720291
H       -0.13697312       2.54180473       2.95815195
H       -3.25492883       6.11298445       4.36629955
H       -2.91658187       5.00297588       5.71786224
H       -2.84636086       1.90739798       7.16229282
H       -4.31625855       1.25272005       6.45043238
H       -5.81935148      -0.38130522       6.91334716
H       -7.10621758      -2.43069503       6.62258194
H       -3.55639207      -4.79305790       7.24443033
H       -2.23846150      -2.73673156       7.54759508
C       -6.18830655      -4.94543966       6.73874309
C       -6.83551575      -5.95268646       6.59379435
Br      -7.88199829      -7.58131935       6.35942450
C        1.79111554      -1.79111554       1.79111554
C        3.13307317      -1.46761753       1.97133936
C        3.93605214      -2.27624137       2.78000535
C        3.40434729      -3.41592825       3.40434538
C        2.05227952      -3.73006926       3.21519788
C        1.24736261      -2.91519163       2.41053792
C        4.31574063      -4.24590114       4.25199427
O        5.39676696      -3.76042920       4.58428379
C        3.87119039      -5.65513049       4.61491338
S        5.04912965      -6.49664649       5.71275831
C        4.85614603      -5.54787239       7.16340269
S        5.92967238      -5.59419212       8.49808541
N        5.03421137      -4.48972129       9.37798082
C        3.99651843      -4.15806699       8.61029694
S        2.83107791      -2.99072174       9.20335200
C        2.21699055      -2.35252969       7.62575807
C        1.24756643      -1.21629020       7.86353149
O        0.03156742      -1.39798231       7.78362678
C        1.76005235       0.15851842       8.17224350
C        3.12450876       0.45670534       8.28424821
C        3.54046261       1.76029469       8.57918305
C        2.59630627       2.76948995       8.75776243
C        1.23759398       2.48954902       8.64555433
C        0.82138988       1.18706867       8.35463500
N        3.84407500      -4.73102421       7.35763656
H        3.56476623      -0.59320134       1.49008349
H        4.98520785      -2.01451710       2.91337401
H        1.58753761      -4.59109332       3.68577089
H        0.19706393      -3.16450652       2.27535936
H        3.80071100      -6.24054033       3.69296150
H        2.89386881      -5.63986458       5.10368660
H        1.67640672      -3.14461717       7.09502776
H        3.02747516      -2.02469166       6.96724416
H        3.89346399      -0.29976204       8.15816739
H        4.60255120       1.97512217       8.67067547
H        0.49435911       3.27072997       8.78413536
H       -0.24460681       0.97937431       8.27330614
C        3.02945614       4.10889277       9.06104661
C        3.39221915       5.23064262       9.31504711
Br       3.97877626       7.04441727       9.72574444
C       -0.00445707       0.01189536      -1.78238275
H       -0.66409135       0.67374010      -2.43557963
H        0.65740317      -0.63156657      -2.45157240
C       -0.90989263      -0.90692880      -0.91072765
C        0.90977584       0.90977584      -0.90977584
C       -0.00465871       1.77757030       0.00794375
H       -0.66225468       2.44313916      -0.64384735
H        0.64322798       2.43503045       0.67728295
C       -1.78241447       0.00034974      -0.00472694
H       -2.45427497      -0.65498947       0.64260836
H       -2.43311707       0.67328779      -0.65473579
C       -0.91132561       0.90220522       0.91563759
C       -0.01476271      -0.02253852       1.78660255
H       -0.67934791      -0.69751639       2.42135241
H        0.63392994       0.61504881       2.47327442
C        0.01484550      -1.77751727      -0.01636693
H        0.67870853      -2.42144646      -0.68295456
H       -0.62264859      -2.45592969       0.64226336
C        1.78714474       0.01002794       0.00389507
H        2.44202412       0.67113390       0.66197326
H        2.45385902      -0.65136977      -0.64189061
C        0.91606151      -0.90478549       0.90901405
