174
Properties=species:S:1:pos:R:3 pbc="F F F"
C        1.79111554       1.79111554      -1.79111554
C        3.17290377       1.77663279      -1.62249349
C        3.97617517       2.58386927      -2.43225441
C        3.40209615       3.41534980      -3.40717498
C        2.01034128       3.42020732      -3.56699805
C        1.20742295       2.60577760      -2.75989161
C        4.31373870       4.26178042      -4.23811692
O        5.51626886       4.00011474      -4.22509635
C        3.70620328       5.42143075      -5.01360023
S        4.92995509       6.29532716      -6.03325220
C        5.28543105       5.06490044      -7.21708961
S        6.62239441       5.11180670      -8.28774881
N        6.20131437       3.67275433      -9.02784478
C        5.09237738       3.25333743      -8.41916755
S        4.35694892       1.74433619      -8.92386654
C        3.51213879       1.29459960      -7.38853992
C        2.87008086      -0.06791268      -7.52521993
O        1.66002505      -0.17686993      -7.73002140
C        3.69956237      -1.30879112      -7.38300618
C        5.08113832      -1.28047296      -7.15138627
C        5.80170545      -2.47459928      -7.03224481
C        5.14449975      -3.69873961      -7.13881861
Br       6.12329273      -5.30696375      -6.97701948
C        3.77187712      -3.74294887      -7.36467105
C        3.05226885      -2.55071765      -7.48740501
N        4.53014854       4.00385807      -7.39872916
H        3.63537501       1.14492193      -0.86775411
H        5.05634280       2.56564033      -2.29111582
H        1.51646559       4.03319693      -4.31473930
H        0.12813895       2.61228986      -2.89650099
H        3.30022166       6.13953650      -4.29445467
H        2.90011447       5.07315553      -5.66414999
H        2.71496716       2.01816438      -7.18292013
H        4.18493742       1.30914513      -6.52532843
H        5.63384209      -0.34943749      -7.06698883
H        6.87481415      -2.43697720      -6.86026754
H        3.25146520      -4.69360794      -7.44990725
H        1.97931685      -2.59804639      -7.66805457
C       -1.79111554      -1.79111554      -1.79111554
C       -2.99389542      -2.28469522      -1.29343942
C       -3.79837786      -3.08997618      -2.10394482
C       -3.40054979      -3.41289537      -3.41117576
C       -2.18811260      -2.90937247      -3.90006158
C       -1.38661246      -2.09701972      -3.08945998
C       -4.30104036      -4.28509162      -4.22750405
O       -5.45401481      -4.45539141      -3.83207373
C       -3.72500543      -4.94404583      -5.47218300
S       -4.96599242      -5.89994008      -6.39260194
C       -5.99009623      -4.61033696      -6.96698792
S       -7.55436984      -4.84011225      -7.62746783
N       -7.77444219      -3.20840705      -7.91906424
C       -6.66453969      -2.60330152      -7.49704115
S       -6.53679741      -0.86000016      -7.62835408
C       -5.36238325      -0.54397058      -6.28892447
C       -5.15958863       0.94430665      -6.11210614
O       -4.15542274       1.50114930      -6.55890308
C       -6.17057558       1.75795954      -5.36116139
C       -7.34143140       1.21006705      -4.82068728
C       -8.24970022       2.02356932      -4.13322007
C       -7.98899847       3.38377401      -3.97935428
Br      -9.21937229       4.47624068      -3.05021686
C       -6.82824346       3.94167887      -4.50703470
C       -5.92252163       3.13045903      -5.19689361
N       -5.62544797      -3.34691167      -6.96037612
H       -3.31533389      -2.05167531      -0.28104186
H       -4.73716910      -3.47182819      -1.70410166
H       -1.84037193      -3.11651957      -4.90751032
H       -0.44997819      -1.70592806      -3.48102355
H       -2.93736160      -5.63677506      -5.16007617
H       -3.29694128      -4.19617717      -6.14430154
H       -4.39074559      -0.98374920      -6.54155687
H       -5.67968031      -0.99585839      -5.34387228
H       -7.58663223       0.15692552      -4.92168671
H       -9.15796687       1.58574994      -3.72588757
H       -6.61749922       5.00198963      -4.39225491
H       -5.01970285       3.57917962      -5.60880180
C       -1.79111554       1.79111554       1.79111554
C       -1.98569691       1.45769979       3.12863335
C       -2.79208958       2.26789397       3.93231530
C       -3.41452054       3.40889958       3.40120081
C       -3.21016830       3.73354353       2.05383483
C       -2.39643209       2.92493548       1.25172459
C       -4.27170897       4.23228286       4.30964421
O       -4.18010098       4.03962568       5.52175329
C       -5.23618773       5.22597417       3.67907236
S       -6.14036848       6.20126715       4.91689882
C       -4.83703933       7.15484930       5.57553248
S       -4.93732853       8.05384834       7.03077305
N       -3.37603328       8.63567342       6.89020678
C       -2.88518283       8.11279149       5.76690803
S       -1.24040930       8.49126620       5.29347616
C       -0.86686551       7.02135508       4.30705773
C        0.57700030       7.04673781       3.85765060
O        0.87386321       7.37829767       2.70874205
C        1.66696465       6.63808980       4.80265228
C        1.42277247       6.24859202       6.12623207
C        2.48439465       5.88206860       6.96167702
C        3.79064978       5.89854921       6.47667932
Br       5.21911975       5.40260295       7.60986527
C        4.04855525       6.27913320       5.16302135
C        2.98909636       6.64881575       4.32923683
N       -3.66878381       7.27916492       4.98478703
H       -1.51808654       0.57385773       3.55610679
H       -2.93852215       1.99714557       4.97743123
H       -3.65592104       4.61171264       1.59676814
H       -2.23914127       3.18952480       0.20826373
H       -5.97312742       4.66547513       3.09561029
H       -4.70570165       5.91477977       3.01693857
H       -1.49422493       7.01347145       3.40835528
H       -1.07647027       6.09384861       4.84909210
H        0.42166806       6.22643614       6.54662534
H        2.28030747       5.58946428       7.98894769
H        5.06464953       6.29556477       4.77684926
H        3.20374678       6.94860435       3.30446746
C        1.79111554      -1.79111554       1.79111554
C        1.50010416      -1.92616834       3.14575755
C        2.30857084      -2.73498613       3.94874189
C        3.41591969      -3.40466549       3.40403574
C        3.69754159      -3.26070894       2.03929613
C        2.88266446      -2.45577347       1.23465423
C        4.24766771      -4.25011124       4.31585709
O        3.78350028      -4.53965778       5.41832190
C        5.63379906      -4.66367048       3.84376473
S        6.47771968      -5.75227581       5.02853895
C        5.48529879      -7.18080624       4.90131608
S        5.52535840      -8.48690132       6.00969020
N        4.37329081      -9.35969850       5.16892416
C        4.03384868      -8.61132956       4.11970411
S        2.81920610      -9.20302360       3.00292195
C        2.20694769      -7.62548027       2.36285035
C        1.03836198      -7.85774449       1.43128164
O        1.18845632      -7.81562852       0.20909168
C       -0.32956147      -8.11444083       1.98889808
C       -0.59282379      -8.18141975       3.36345567
C       -1.89187866      -8.42891420       3.82231544
C       -2.93122407      -8.60486046       2.91094236
Br      -4.68250676      -8.93867080       3.53718443
C       -2.68602992      -8.53701946       1.54260976
C       -1.38819815      -8.29351361       1.08364075
N        4.63585903      -7.37953880       3.91733793
H        0.65121561      -1.40948916       3.58734630
H        2.07245408      -2.83280172       5.00784315
H        4.53242181      -3.76723197       1.56474804
H        3.10639815      -2.35583705       0.17469460
H        6.24162319      -3.76048176       3.73210788
H        5.57838338      -5.17794536       2.88109125
H        2.99777859      -7.13157941       1.78669365
H        1.91946868      -6.93659460       3.16334770
H        0.18772692      -8.05565968       4.10800682
H       -2.07964968      -8.48583313       4.89192105
H       -3.49090110      -8.67389551       0.82477009
H       -1.20793634      -8.24665862       0.01060275
C       -0.00445707       0.01189536      -1.78238275
H       -0.66409135       0.67374010      -2.43557963
H        0.65740317      -0.63156657      -2.45157240
C       -0.90989263      -0.90692880      -0.91072765
C        0.90977584       0.90977584      -0.90977584
C       -0.00465871       1.77757030       0.00794375
H       -0.66225468       2.44313916      -0.64384735
H        0.64322798       2.43503045       0.67728295
C       -1.78241447       0.00034974      -0.00472694
H       -2.45427497      -0.65498947       0.64260836
H       -2.43311707       0.67328779      -0.65473579
C       -0.91132561       0.90220522       0.91563759
C       -0.01476271      -0.02253852       1.78660255
H       -0.67934791      -0.69751639       2.42135241
H        0.63392994       0.61504881       2.47327442
C        0.01484550      -1.77751727      -0.01636693
H        0.67870853      -2.42144646      -0.68295456
H       -0.62264859      -2.45592969       0.64226336
C        1.78714474       0.01002794       0.00389507
H        2.44202412       0.67113390       0.66197326
H        2.45385902      -0.65136977      -0.64189061
C        0.91606151      -0.90478549       0.90901405
