198
Properties=species:S:1:pos:R:3 pbc="F F F"
N        7.93793017       4.77147095      -9.32440391
C        6.94455054       4.27588938      -8.98250327
C        5.74362733       3.64566793      -8.54479742
C        4.85942058       4.17383860      -7.55421439
S        5.01395652       5.73060705      -6.75217200
C        6.09512350       5.31103508      -5.36085595
C        5.54972002       4.29237032      -4.36754233
O        6.34427570       3.66513389      -3.66670388
N        4.17527404       4.19394943      -4.29604455
C        3.42012481       3.38572388      -3.42246804
C        3.94557738       2.76763392      -2.28519033
C        3.13361849       1.97097572      -1.46988028
C        1.79132390       1.79132390      -1.79132390
C        1.24978644       2.41121267      -2.91377923
C        2.06238279       3.21215782      -3.72226855
N        3.79424025       3.44600935      -7.23908481
S        3.84218228       2.04735538      -8.11444826
C        5.26970647       2.42676361      -9.00289944
S        5.87018650       1.28604648     -10.19451279
C        6.38722794       2.29127086     -11.60912687
C        5.36927116       3.31862281     -12.07461591
O        5.75008014       4.43126135     -12.43124257
N        4.05769833       2.87954149     -12.08960866
C        2.94131236       3.58798034     -12.58055512
C        3.04357942       4.70116167     -13.42030546
C        1.89551534       5.34879535     -13.88882564
C        0.63851920       4.88884426     -13.51013434
Br      -0.91194714       5.76988573     -14.13450039
C        0.51947603       3.77970481     -12.67671464
C        1.66936632       3.12438743     -12.22255808
H        6.29945871       6.23086396      -4.80306635
H        7.04496981       4.93555061      -5.75504003
H        3.66319612       4.61231827      -5.06844686
H        4.98463757       2.89472406      -1.99656749
H        3.56365020       1.49836633      -0.59060266
H        0.20294205       2.27557693      -3.17165846
H        1.62353553       3.68014697      -4.60034571
H        6.59008213       1.62201796     -12.45196206
H        7.32462997       2.79866846     -11.36612382
H        3.86654539       2.00608021     -11.61123329
H        4.00609545       5.07912776     -13.75317919
H        2.00036082       6.20603268     -14.54917371
H       -0.46020584       3.41885122     -12.37457863
H        1.55104931       2.26344663     -11.56997117
N       -6.49924868      -9.98321193      -5.55134442
C       -6.26164827      -9.29522119      -4.64607372
C       -5.93713561      -8.45618516      -3.54077190
C       -6.00654771      -7.02891636      -3.55200950
S       -6.58950491      -6.03068923      -4.87654143
C       -5.08248149      -5.82456990      -5.85996314
C       -3.92299103      -5.11246197      -5.17417967
O       -2.78145497      -5.29820806      -5.59645044
N       -4.26230499      -4.25619091      -4.14677212
C       -3.39674684      -3.43317340      -3.39839650
C       -2.08481440      -3.13727995      -3.77630728
C       -1.28184702      -2.31785247      -2.97477501
C       -1.79132390      -1.79132390      -1.79132390
C       -3.10083578      -2.06613772      -1.40780484
C       -3.90252915      -2.87961979      -2.21466022
N       -5.64149680      -6.39318012      -2.44465749
S       -5.15035544      -7.51540325      -1.33822723
C       -5.49375523      -8.90030194      -2.30531234
S       -5.19879548     -10.50195943      -1.64999087
C       -6.61458570     -11.50501410      -2.16802587
C       -7.97503852     -10.88137026      -1.90610110
O       -8.86881391     -11.00309685      -2.74067330
N       -8.10063777     -10.23824618      -0.68796452
C       -9.27914109      -9.67830579      -0.15240093
C      -10.55956510      -9.97854878      -0.62693268
C      -11.69102337      -9.40321901      -0.03889396
C      -11.54374905      -8.51635850       1.02260975
Br     -13.07131027      -7.73121921       1.81009050
C      -10.27563503      -8.20912690       1.50886646
C       -9.14678262      -8.79846327       0.92893406
H       -5.33850194      -5.24311234      -6.75177473
H       -4.73820858      -6.81136334      -6.18598853
H       -5.20355325      -4.36307904      -3.77732896
H       -1.65755525      -3.52012119      -4.69825267
H       -0.26347811      -2.10183349      -3.28730758
H       -3.50577648      -1.65920846      -0.48519249
H       -4.91974617      -3.09092892      -1.89335312
H       -6.57842491     -12.45730019      -1.62833704
H       -6.52290808     -11.73325220      -3.23326197
H       -7.24254087     -10.06528104      -0.17603699
H      -10.71704954     -10.68006648      -1.44128638
H      -12.67676471      -9.66018296      -0.41861954
H      -10.15488109      -7.51366645       2.33532353
H       -8.16754659      -8.54011259       1.32319206
N       -6.10284331       5.89428416      10.03667757
C       -5.14255156       5.61423096       9.44616066
C       -3.97476567       5.23846492       8.72086209
C       -3.75866851       5.49670338       7.33210169
S       -4.82649203       6.40176590       6.26847764
C       -5.95726295       5.10316885       5.70658274
C       -5.33003586       3.95691165       4.92268517
O       -5.92276738       2.87882619       4.87451989
N       -4.14821790       4.24547157       4.27157854
C       -3.40392461       3.39218684       3.43220529
C       -3.90217578       2.20406463       2.89216122
C       -3.09810061       1.40349073       2.07288316
C       -1.79132390       1.79132390       1.79132390
C       -1.28468098       2.97900365       2.31109371
C       -2.09323011       3.77992795       3.12365110
N       -2.62527216       5.05406533       6.79999693
S       -1.77786317       4.25585068       7.97027206
C       -2.89113339       4.55690254       9.25133359
S       -2.53283380       3.95637787      10.86153411
C       -3.00633589       5.28960879      11.99168099
C       -2.47486558       6.66443182      11.62321248
O       -3.19277052       7.65115373      11.76865980
N       -1.16702404       6.68639904      11.17342540
C       -0.40131272       7.83282187      10.87571322
C       -0.74277467       9.11967208      11.30259981
C        0.07046634      10.21403906      10.98956362
C        1.22607151      10.02486641      10.23870290
Br       2.31900815      11.50444082       9.80700631
C        1.58171019       8.74920554       9.80840013
C        0.77461408       7.65430271      10.13662319
H       -6.70810353       5.56689975       5.05838573
H       -6.47272841       4.68541408       6.57741796
H       -3.67836695       5.09680398       4.56879031
H       -4.92003150       1.87580670       3.08009091
H       -3.50573702       0.48235212       1.66453005
H       -0.26544220       3.28848292       2.09625232
H       -1.67643289       4.69922075       3.52837457
H       -2.62794606       5.04599047      12.99012562
H       -4.09659466       5.33232353      12.06050405
H       -0.75258215       5.79065497      10.94062177
H       -1.62667050       9.30558998      11.90614193
H       -0.21046066      11.20351633      11.34159022
H        2.48138726       8.59661344       9.21799784
H        1.07084529       6.66916096       9.78615144
N        5.69555191     -10.01487975       6.32337337
C        5.39492061      -9.45966720       5.34835538
C        4.99458958      -8.77544203       4.16406107
C        5.31095194      -7.41517831       3.86134333
S        6.32444015      -6.34864629       4.82364913
C        5.11818472      -5.66167613       5.98715369
C        3.98127213      -4.85050071       5.37785984
O        2.94018634      -4.71489520       6.02103192
N        4.23895813      -4.27643486       4.14987503
C        3.39078589      -3.43150212       3.40602872
C        2.25983872      -2.80426502       3.93429789
C        1.46002554      -1.98521505       3.12923390
C        1.79132390      -1.79132390       1.79132390
C        2.92240906      -2.39874324       1.25362604
C        3.72315097      -3.21088280       2.06277539
N        4.83597805      -6.91831165       2.72504471
S        3.93540917      -8.08574172       1.98283503
C        4.23016256      -9.32299706       3.14620990
S        3.53056559     -10.91493170       2.90524849
C        4.82819820     -12.08918520       3.37024227
C        6.18959442     -11.82202098       2.75089448
O        7.20458958     -11.98336826       3.42462622
N        6.16448484     -11.44088440       1.42147924
C        7.28201312     -11.24396128       0.58387342
C        8.56197217     -11.72107527       0.88199911
C        9.62582525     -11.50849924      -0.00118815
C        9.41352686     -10.80812334      -1.18415240
Br      10.85262611     -10.51193872      -2.37212585
C        8.14414321     -10.32891787      -1.49716560
C        7.07865836     -10.55692231      -0.61926884
H        5.65357279      -5.00194833       6.67786791
H        4.68495638      -6.48173823       6.56886585
H        5.04784699      -4.64208349       3.65403078
H        1.97727674      -2.92259768       4.97605469
H        0.58382982      -1.50815257       3.56063681
H        3.18753288      -2.25263963       0.21000493
H        4.59720083      -3.68469108       1.62213630
H        4.51446063     -13.09108995       3.05851157
H        4.92550171     -12.10486630       4.45905423
H        5.26084354     -11.18189931       1.04111604
H        8.76398598     -12.28812376       1.78629266
H       10.60977928     -11.89815113       0.24763680
H        7.97385684      -9.77755182      -2.41818464
H        6.09813248     -10.16982780      -0.88349317
C       -0.00445707       0.01189536      -1.78238275
H       -0.66409135       0.67374010      -2.43557963
H        0.65740317      -0.63156657      -2.45157240
C       -0.90989263      -0.90692880      -0.91072765
C        0.90977584       0.90977584      -0.90977584
C       -0.00465871       1.77757030       0.00794375
H       -0.66225468       2.44313916      -0.64384735
H        0.64322798       2.43503045       0.67728295
C       -1.78241447       0.00034974      -0.00472694
H       -2.45427497      -0.65498947       0.64260836
H       -2.43311707       0.67328779      -0.65473579
C       -0.91132561       0.90220522       0.91563759
C       -0.01476271      -0.02253852       1.78660255
H       -0.67934791      -0.69751639       2.42135241
H        0.63392994       0.61504881       2.47327442
C        0.01484550      -1.77751727      -0.01636693
H        0.67870853      -2.42144646      -0.68295456
H       -0.62264859      -2.45592969       0.64226336
C        1.78714474       0.01002794       0.00389507
H        2.44202412       0.67113390       0.66197326
H        2.45385902      -0.65136977      -0.64189061
C        0.91606151      -0.90478549       0.90901405
