185
Properties=species:S:1:pos:R:3 pbc="F F F"
C        0.00000000       0.00000000       0.00000000
N        7.02802615       3.86156692      -8.41449989
C        6.03464651       3.36598536      -8.07259925
C        4.83372331       2.73576391      -7.63489339
C        3.94951656       3.26393458      -6.64431037
S        4.10405250       4.82070302      -5.84226798
C        5.18521948       4.40113106      -4.45095193
C        4.63981600       3.38246630      -3.45763831
O        5.43437167       2.75522987      -2.75679985
N        3.26537002       3.28404541      -3.38614052
C        2.51022079       2.47581986      -2.51256401
C        3.03567336       1.85772989      -1.37528630
C        2.22371447       1.06107170      -0.55997626
C        0.88141988       0.88141988      -0.88141988
C        0.33988241       1.50130865      -2.00387521
C        1.15247876       2.30225380      -2.81236453
N        2.88433623       2.53610532      -6.32918079
S        2.93227825       1.13745136      -7.20454424
C        4.35980245       1.51685959      -8.09299541
S        4.96028248       0.37614246      -9.28460876
C        5.47732392       1.38136683     -10.69922284
C        4.45936714       2.40871878     -11.16471188
O        4.84017612       3.52135732     -11.52133854
N        3.14779431       1.96963746     -11.17970463
C        2.03140833       2.67807631     -11.67065110
C        2.13367540       3.79125765     -12.51040144
C        0.98561131       4.43889133     -12.97892162
C       -0.27138483       3.97894023     -12.60023032
C       -0.39042800       2.86980078     -11.76681062
C        0.75946229       2.21448341     -11.31265406
H        5.38955469       5.32095993      -3.89316232
H        6.13506579       4.02564659      -4.84513600
H        2.75329209       3.70241425      -4.15854284
H        4.07473354       1.98482003      -1.08666346
H        2.65374617       0.58846231       0.31930137
H       -0.70696198       1.36567291      -2.26175443
H        0.71363150       2.77024295      -3.69044169
H        5.68017811       0.71211393     -11.54205804
H        6.41472594       1.88876443     -10.45621979
H        2.95664137       1.09617619     -10.70132927
H        3.09619143       4.16922374     -12.84327516
H        1.09045680       5.29612866     -13.63926969
H       -1.37010987       2.50894720     -11.46467461
H        0.64114528       1.35354261     -10.66006714
C       -1.45303777       4.65040612     -13.07607681
C       -2.44267211       5.21275880     -13.47459825
Br      -4.04282714       6.12203551     -14.11897372
N       -4.82020930      -9.11047045      -5.37341321
C       -4.52344382      -8.54897598      -4.40081131
C       -4.12771942      -7.85744714      -3.21921404
C       -4.43414256      -6.49154161      -2.93207733
S       -5.42866139      -5.42471124      -3.91365086
C       -4.20531347      -4.75984790      -5.07214110
C       -3.06655943      -3.95357630      -4.45978488
O       -2.01833969      -3.83363632      -5.09442539
N       -3.33022943      -3.36569487      -3.23963164
C       -2.48112131      -2.52173705      -2.49574630
C       -1.33951646      -1.90996619      -3.01920690
C       -0.53957210      -1.09086880      -2.21432152
C       -0.88141988      -0.88141988      -0.88141988
C       -2.02306476      -1.47328529      -0.34871622
C       -2.82383535      -2.28550245      -1.15775929
N       -3.96508863      -5.98849499      -1.79603872
S       -3.08238418      -7.15722631      -1.03466335
C       -3.37790338      -8.40251966      -2.18923440
S       -2.69547947      -9.99854308      -1.92701115
C       -3.99966993     -11.16502401      -2.39321965
C       -5.36418677     -10.87948541      -1.78912563
O       -6.37436277     -11.03771657      -2.47079264
N       -5.34782848     -10.48618741      -0.46312052
C       -6.47117639     -10.27110210       0.36214275
C       -7.75272357     -10.73910772       0.05649681
C       -8.82267674     -10.50844187       0.92769435
C       -8.61480540      -9.79903474       2.10605442
C       -7.34395104      -9.32870072       2.42646835
C       -6.27255945      -9.57475930       1.56071899
H       -4.72809146      -4.10167551      -5.77390997
H       -3.77440102      -5.58928885      -5.64215852
H       -4.14705830      -3.71918563      -2.74800525
H       -1.04843727      -2.04064346      -4.05713631
H        0.34500247      -0.62599479      -2.64191480
H       -2.29646499      -1.31498353       0.69098316
H       -3.70631935      -2.74705608      -0.72094070
H       -3.69821199     -12.16683362      -2.06930446
H       -4.08702798     -11.18998050      -3.48270169
H       -4.44536709     -10.23203795      -0.07674178
H       -7.95164572     -11.31268930      -0.84435531
H       -9.80788353     -10.89127346       0.67330185
H       -7.17705507      -8.77035005       3.34389318
H       -5.29094703      -9.19430918       1.83050118
C       -9.71776231      -9.55470320       2.99902035
C      -10.64148872      -9.35007554       3.74687932
Br     -12.13507620      -9.01920991       4.95610402
N       -6.99585647       3.87154201       8.43669448
C       -6.00142108       3.38054869       8.09126134
C       -4.79917270       2.75570307       7.64950484
C       -3.92571474       3.28305018       6.64899658
S       -4.09690548       4.83297541       5.83714261
C       -5.18483015       4.39597085       4.45650147
C       -4.63922486       3.37415806       3.46653769
O       -5.43422725       2.73640373       2.77577042
N       -3.26465311       3.28489964       3.38600320
C       -2.50996073       2.47583816       2.51280577
C       -3.03900681       1.84603157       1.38365118
C       -2.22717982       1.04934888       0.56823372
C       -0.88141988       0.88141988       0.88141988
C       -0.33640665       1.51303333       1.99562628
C       -1.14894938       2.31394998       2.80419773
N       -2.85764948       2.56051514       6.33145771
S       -2.88953070       1.16779206       7.21695109
C       -4.31342359       1.54343537       8.11279849
S       -4.89741813       0.40699067       9.31662490
C       -5.41160543       1.41854633      10.72776184
C       -4.39770098       2.45630052      11.17879630
O       -4.78386197       3.56873140      11.53027862
N       -3.08297896       2.02656900      11.18758844
C       -1.96821305       2.74629830      11.66562440
C       -2.07245296       3.86465132      12.49823021
C       -0.92573764       4.52364241      12.95404421
C        0.33179016       4.06987079      12.56970510
C        0.45282123       2.95572223      11.74328240
C       -0.69556480       2.28913669      11.30189826
H       -5.39959023       5.31036759       3.89371912
H       -6.12919887       4.01661779       4.86003172
H       -2.75013227       3.71231738       4.15179952
H       -4.08094449       1.96376596       1.10150658
H       -2.66002590       0.56751339      -0.30463217
H        0.71315920       1.38659080       2.24703377
H       -0.70726391       2.79121894       3.67583328
H       -5.60378459       0.75386847      11.57669702
H       -6.35426216       1.91760705      10.48784096
H       -2.88901417       1.15110791      10.71402474
H       -3.03525693       4.23818810      12.83524529
H       -1.03200493       5.38477572      13.60907450
H        1.43288514       2.59963544      11.43676164
H       -0.57574587       1.42444977      10.65455940
C        1.51197543       4.75298094      13.03243965
C        2.50038059       5.32508569      13.41997983
Br       4.09854813       6.25013068      14.04659954
N        4.21673488      -8.86912595       6.21823213
C        3.82796883      -8.42945063       5.21581165
C        3.32326079      -7.87915682       4.00196300
C        3.78880298      -6.67030006       3.39865847
S        5.12419857      -5.67729575       3.96552918
C        4.28748894      -4.59612781       5.15368571
C        3.19934894      -3.69058246       4.58998920
O        2.33537510      -3.25795199       5.35307431
N        3.30607353      -3.37955818       3.24992423
C        2.47729893      -2.51788795       2.50341778
C        1.58274942      -1.61024491       3.07569523
C        0.78500142      -0.79263676       2.26712424
C        0.88141988      -0.88141988       0.88141988
C        1.77746336      -1.77139778       0.29620513
C        2.57799267      -2.58183851       1.10726591
N        3.19108347      -6.27957537       2.27896350
S        1.99098249      -7.35676524       1.92652612
C        2.30125209      -8.42589249       3.24251287
S        1.32379689      -9.87268057       3.42455625
C        2.48216556     -11.18358285       3.89216519
C        3.72515665     -11.28344424       3.02419692
O        4.81113150     -11.52603548       3.54570501
N        3.50784699     -11.12147896       1.66781046
C        4.46177126     -11.27762660       0.64073788
C        5.68233421     -11.93653248       0.81646779
C        6.57806527     -12.07454171      -0.24918272
C        6.25831005     -11.54428513      -1.49480946
C        5.04548187     -10.88774613      -1.68704460
C        4.14470026     -10.76521259      -0.62331309
H        5.04309796      -3.94918934       5.61138964
H        3.84814891      -5.21496322       5.94273625
H        3.93658763      -3.96718700       2.71047455
H        1.48905318      -1.50480501       4.15235884
H        0.09476068      -0.09452324       2.73362320
H        1.85834191      -1.84690805      -0.78478459
H        3.26491084      -3.27786328       0.63154202
H        1.95902046     -12.14382253       3.83150709
H        2.78174802     -11.04372436       4.93423779
H        2.60129531     -10.75879381       1.39405770
H        5.96019435     -12.38012487       1.76837111
H        7.51646122     -12.60009273      -0.09069881
H        4.79265877     -10.46806665      -2.65721348
H        3.20627742     -10.24524854      -0.79677092
C        7.18379037     -11.67937800      -2.58972320
C        7.95888013     -11.79251827      -3.50671346
Br       9.21213472     -11.97545653      -4.98940916
