177
Properties=species:S:1:pos:R:3 pbc="F F F"
C        0.00000000       0.00000000       0.00000000
N        7.02802615       3.86156692      -8.41449989
C        6.03464651       3.36598536      -8.07259925
C        4.83372331       2.73576391      -7.63489339
C        3.94951656       3.26393458      -6.64431037
S        4.10405250       4.82070302      -5.84226798
C        5.18521948       4.40113106      -4.45095193
C        4.63981600       3.38246630      -3.45763831
O        5.43437167       2.75522987      -2.75679985
N        3.26537002       3.28404541      -3.38614052
C        2.51022079       2.47581986      -2.51256401
C        3.03567336       1.85772989      -1.37528630
C        2.22371447       1.06107170      -0.55997626
C        0.88141988       0.88141988      -0.88141988
C        0.33988241       1.50130865      -2.00387521
C        1.15247876       2.30225380      -2.81236453
N        2.88433623       2.53610532      -6.32918079
S        2.93227825       1.13745136      -7.20454424
C        4.35980245       1.51685959      -8.09299541
S        4.96028248       0.37614246      -9.28460876
C        5.47732392       1.38136683     -10.69922284
C        4.45936714       2.40871878     -11.16471188
O        4.84017612       3.52135732     -11.52133854
N        3.14779431       1.96963746     -11.17970463
C        2.03140833       2.67807631     -11.67065110
C        2.13367540       3.79125765     -12.51040144
C        0.98561131       4.43889133     -12.97892162
C       -0.27138483       3.97894023     -12.60023032
Br      -1.82185117       4.85998171     -13.22459636
C       -0.39042800       2.86980078     -11.76681062
C        0.75946229       2.21448341     -11.31265406
H        5.38955469       5.32095993      -3.89316232
H        6.13506579       4.02564659      -4.84513600
H        2.75329209       3.70241425      -4.15854284
H        4.07473354       1.98482003      -1.08666346
H        2.65374617       0.58846231       0.31930137
H       -0.70696198       1.36567291      -2.26175443
H        0.71363150       2.77024295      -3.69044169
H        5.68017811       0.71211393     -11.54205804
H        6.41472594       1.88876443     -10.45621979
H        2.95664137       1.09617619     -10.70132927
H        3.09619143       4.16922374     -12.84327516
H        1.09045680       5.29612866     -13.63926969
H       -1.37010987       2.50894720     -11.46467461
H        0.64114528       1.35354261     -10.66006714
N       -7.33626098      -8.18316958      -3.78466240
C       -7.09727736      -7.27509456      -3.10085919
C       -6.77631040      -6.17698135      -2.25108886
C       -6.22744947      -4.93472121      -2.69559082
S       -5.92913351      -4.47254427      -4.36534571
C       -4.26648984      -5.14045873      -4.63035390
C       -3.16219981      -4.56658958      -3.75113121
O       -2.13943185      -5.22965292      -3.57731662
N       -3.38262348      -3.29814177      -3.25479069
C       -2.50182407      -2.51886575      -2.47791483
C       -1.14085108      -2.79735084      -2.33048763
C       -0.33049475      -1.98083808      -1.53342960
C       -0.88141988      -0.88141988      -0.88141988
C       -2.23296376      -0.58311724      -1.02898527
C       -3.03819094      -1.39713712      -1.83176903
N       -5.95843277      -4.02207066      -1.76911892
S       -6.32634337      -4.65729761      -0.29063286
C       -6.93433041      -6.16081161      -0.87451543
S       -7.54615142      -7.34391356       0.26903127
C       -9.04188205      -8.02402117      -0.49201037
C      -10.02162416      -6.99023676      -1.02093688
O      -10.60476154      -7.19501591      -2.08309453
N      -10.20285190      -5.88488235      -0.20940215
C      -11.13087811      -4.84149702      -0.40776061
C      -12.22447570      -4.93725358      -1.27360520
C      -13.12042553      -3.87174087      -1.41125786
C      -12.91914168      -2.70073726      -0.68790679
Br     -14.12336233      -1.25771011      -0.88165446
C      -11.83649568      -2.59050170       0.18081397
C      -10.95102984      -3.66388036       0.32831044
H       -3.98671658      -4.94599263      -5.67096773
H       -4.29638040      -6.22506979      -4.48439819
H       -4.34227541      -2.96601051      -3.30596326
H       -0.67395964      -3.63894503      -2.83331237
H        0.72559493      -2.21689488      -1.43160717
H       -2.67063636       0.27313387      -0.52296287
H       -4.09378479      -1.15363590      -1.92689545
H       -9.56797862      -8.62426289       0.25789144
H       -8.75728489      -8.69812878      -1.30429649
H       -9.53701904      -5.76275436       0.54562659
H      -12.42612862      -5.84115523      -1.84140647
H      -13.96919737      -3.97377204      -2.08288573
H      -11.67243429      -1.67624234       0.74516469
H      -10.11139152      -3.55264525       1.00928174
N       -5.00867942       5.16750914       9.12790440
C       -4.06357016       4.90322443       8.50643652
C       -2.91293140       4.54637300       7.74507621
C       -2.77090360       4.74917006       6.33768785
S       -3.92575639       5.55557834       5.28568877
C       -5.01881697       4.18338648       4.83509901
C       -4.37443732       3.03092500       4.07455828
O       -4.91801284       1.92652521       4.10186334
N       -3.23735617       3.34109591       3.35710386
C       -2.49222043       2.48362049       2.52276375
C       -2.95822866       1.25075978       2.05970112
C       -2.15499077       0.44947258       1.24029907
C       -0.88141988       0.88141988       0.88141988
C       -0.40791640       2.11326985       1.32388002
C       -1.21593353       2.91439606       2.13676751
N       -1.64290417       4.33303106       5.77368711
S       -0.70824009       3.62842171       6.93761204
C       -1.77634246       3.93894373       8.25437126
S       -1.31943611       3.43034197       9.87125563
C       -1.80372615       4.79229373      10.96189372
C       -1.35355582       6.17074998      10.50849200
O       -2.10934962       7.13033018      10.64319218
N       -0.06939599       6.22982122       9.99791919
C        0.62827910       7.39403016       9.61438469
C        0.24670161       8.68289523       9.99914087
C        0.99354582       9.79655337       9.60041671
C        2.12222871       9.62418223       8.80583221
Br       3.12503494      11.12915352       8.25860832
C        2.51728240       8.34695386       8.41651194
C        1.77726923       7.23373899       8.83013000
H       -5.81840919       4.58273513       4.20253263
H       -5.47517065       3.78406344       5.74661429
H       -2.79482434       4.22532424       3.59410060
H       -3.95039715       0.88673787       2.30908202
H       -2.53712673      -0.50681857       0.89259895
H        0.58531016       2.45736341       1.04841212
H       -0.82473102       3.86908317       2.48050195
H       -1.37049499       4.61234111      11.95151397
H       -2.89066283       4.78973361      11.07931373
H        0.37545957       5.34350698       9.78609942
H       -0.61721957       8.85723424      10.63423653
H        0.68286699      10.78786936       9.92085278
H        3.39598759       8.20718240       7.79231714
H        2.10308832       6.24750095       8.51034240
N        4.55875931      -9.04806832       5.69726532
C        4.22923892      -8.53583361       4.70815858
C        3.79457557      -7.90151958       3.50828545
C        4.17411919      -6.58668147       3.09696085
S        5.31352083      -5.53194066       3.92156201
C        4.23211116      -4.69550198       5.10968932
C        3.10993266      -3.85017822       4.51980973
O        2.12423186      -3.60612082       5.21604871
N        3.32081763      -3.37191368       3.24282463
C        2.47936137      -2.52048197       2.49876131
C        1.42711536      -1.78801269       3.05356151
C        0.62814990      -0.96936876       2.24724376
C        0.88141988      -0.88141988       0.88141988
C        1.93441013      -1.59474874       0.31590741
C        2.73500095      -2.40631846       1.12577769
N        3.65665692      -6.13101751       1.96194791
S        2.63802832      -7.28004335       1.35620217
C        2.93178414      -8.45939863       2.57847467
S        2.12014119     -10.01333676       2.48755575
C        3.37023540     -11.23986298       2.94781521
C        4.70153921     -11.10257499       2.22868361
O        5.74697488     -11.28867067       2.84722644
N        4.61208004     -10.80399586       0.88106050
C        5.68168700     -10.73405676      -0.03560801
C        6.94645512     -11.27553072       0.21334865
C        7.96055982     -11.18927818      -0.74641374
C        7.71424304     -10.55126515      -1.95772246
Br       9.08702942     -10.42557834      -3.24988085
C        6.45914945     -10.00933508      -2.22230112
C        5.44210981     -10.11117287      -1.26668292
H        4.85209408      -4.03106483       5.72051804
H        3.78826642      -5.44728154       5.77030042
H        4.07075028      -3.82050731       2.72299159
H        1.20744069      -1.82235805       4.11641830
H       -0.18615765      -0.40936570       2.69969907
H        2.13832162      -1.53170702      -0.74956328
H        3.54676141      -2.96351269       0.66404204
H        2.97484232     -12.23619742       2.72331034
H        3.53835539     -11.19424355       4.02711123
H        3.70305902     -10.50981223       0.54127557
H        7.17234099     -11.79741019       1.13893915
H        8.93271640     -11.62709017      -0.53395143
H        6.26277578      -9.50621660      -3.16548044
H        4.47218714      -9.67709230      -1.49452441
