174
Properties=species:S:1:pos:R:3 pbc="F F F"
N        7.21369195       8.61747634      -2.39991190
C        7.08446723       8.03265921      -3.39366973
C        6.91945213       7.33211292      -4.62344897
C        6.28159431       6.06304718      -4.78552739
S        5.57930493       5.12770394      -3.46340919
C        4.23219673       4.27487736      -4.33897385
C        3.39594137       3.40993156      -3.42491187
C        2.54115398       3.98369123      -2.47033121
C        1.74330035       3.17710612      -1.65450606
C        1.79176818       1.79176818      -1.79176818
C        2.63555070       1.20483710      -2.73138882
C        3.43686117       2.01164695      -3.54279181
N        6.23286799       5.57284015      -6.02178840
S        6.93319914       6.66053292      -7.04967328
C        7.34858718       7.81046261      -5.84991334
S        8.11982503       9.34330336      -6.21782087
C        9.72044058       8.80466034      -6.89553826
C       10.57907849       8.06628338      -5.89763734
C       10.92968362       6.72493898      -6.11486395
C       11.74038253       6.04623974      -5.20149780
C       12.20463276       6.70448717      -4.06503649
C       11.86677481       8.03504815      -3.83319332
C       11.06057429       8.71444950      -4.74871374
H        4.65831044       3.65384803      -5.13477419
H        3.57860998       5.01290569      -4.81884356
H        2.48997920       5.06481558      -2.35648341
H        1.08814030       3.63855458      -0.92037292
H        2.67530149       0.12455055      -2.84323510
H        4.08865722       1.53894385      -4.27508464
H       10.26452116       9.69431486      -7.23312884
H        9.54834230       8.19671000      -7.79067234
H       10.58173142       6.19597714      -6.99999620
H       12.00686419       5.00878012      -5.38695246
H       12.22521132       8.55321216      -2.94734044
H       10.80889897       9.75625900      -4.55599389
C       13.04444267       6.00596946      -3.12674425
C       13.74778347       5.42096088      -2.34092450
Br      14.88502606       4.47505148      -1.07032044
N       -4.12448003      -4.26507416      -9.84152600
C       -4.64919766      -4.86400359      -8.99759492
C       -5.31220752      -5.59384921      -7.96895729
C       -4.98044690      -5.57111644      -6.57860555
S       -3.66486160      -4.61928568      -5.88627078
C       -4.33916757      -4.27438846      -4.23249191
C       -3.42621974      -3.40663081      -3.39793425
C       -3.23626963      -2.05064375      -3.70826303
C       -2.41960565      -1.24617566      -2.90913122
C       -1.79176818      -1.79176818      -1.79176818
C       -1.96644609      -3.13537168      -1.46995885
C       -2.77863053      -3.94020933      -2.27246007
N       -5.72158431      -6.33048429      -5.77542794
S       -6.88362241      -7.07960604      -6.68017689
C       -6.39975811      -6.42278442      -8.18642060
S       -7.24757048      -6.74445883      -9.68891995
C       -7.00154939      -8.53711332      -9.88197647
C       -5.55500628      -8.93100317     -10.05698976
C       -4.91853347      -9.74419423      -9.10675884
C       -3.58523671     -10.12530056      -9.27758279
C       -2.88015778      -9.69484087     -10.39915777
C       -3.49540559      -8.88754449     -11.35206618
C       -4.82936315      -8.51090945     -11.18346493
H       -4.51328714      -5.22233438      -3.71131114
H       -5.30992420      -3.77353426      -4.32690076
H       -3.72509579      -1.61076155      -4.57542085
H       -2.28333813      -0.19875267      -3.16497700
H       -1.48006025      -3.56488157      -0.59814534
H       -2.90863358      -4.98754322      -2.00650890
H       -7.56174042      -8.86497695     -10.76524749
H       -7.44942999      -9.05792500      -9.02836965
H       -5.45491564     -10.09539514      -8.22739398
H       -3.10827599     -10.75962072      -8.53470005
H       -2.94953072      -8.54768442     -12.22854878
H       -5.29816755      -7.88318818     -11.93979613
C       -1.50760253     -10.09230031     -10.57725354
C       -0.35808752     -10.42517258     -10.72640875
Br       1.50058104     -10.96339890     -10.96758011
N       -4.04828901       9.83852140       4.34426978
C       -4.69895520       8.99955712       4.81228385
C       -5.49278456       7.97607838       5.40615109
C       -5.50969204       6.59947641       5.02100043
S       -4.53370768       5.92053386       3.71617653
C       -4.27852635       4.23010052       4.33742106
C       -3.40773160       3.39720517       3.42584804
C       -2.03453474       3.66087243       3.29976925
C       -1.22938427       2.86219465       2.48333361
C       -1.79176818       1.79176818       1.79176818
C       -3.15243353       1.51672845       1.90261465
C       -3.95764898       2.31895484       2.71469611
N       -6.32753493       5.79932370       5.70063791
S       -7.08702025       6.68819791       6.86818717
C       -6.35506705       8.18465820       6.46923787
S       -6.65272638       9.66546218       7.36276070
C       -8.42570201       9.93813815       7.05679902
C       -8.75541408      10.18319834       5.60438679
C       -9.57832539       9.29051846       4.90064270
C       -9.89989096       9.52660216       3.56162695
C       -9.39982308      10.65626178       2.91807156
C       -8.58186046      11.55265132       3.60050449
C       -8.26470131      11.31893802       4.94009819
H       -5.25165587       3.74042882       4.45484797
H       -3.81306870       4.26787204       5.32941849
H       -1.58170784       4.49089601       3.83867433
H       -0.16846828       3.08157678       2.39702274
H       -3.59517607       0.68155526       1.36635583
H       -5.01861215       2.08971624       2.79435733
H       -8.74167369      10.81177834       7.63851283
H       -8.99570814       9.08934736       7.45066914
H       -9.98343476       8.40597683       5.38829317
H      -10.54262473       8.82787474       3.03209729
H       -8.18781038      12.43512115       3.10283239
H       -7.62772595      12.03166263       5.46176328
C       -9.73589600      10.90173757       1.53952282
C      -10.01735707      11.10732354       0.38498825
Br     -10.47245581      11.43973867      -1.48179651
N        6.02892279      -2.84043501       9.36172239
C        6.07108539      -3.77046728       8.66924350
C        6.14380393      -4.91185196       7.81935814
C        5.37667502      -5.12199619       6.63149767
S        4.18267023      -3.98270855       6.00503929
C        4.31897978      -4.30670601       4.22036214
C        3.42146256      -3.41542254       3.39389971
C        3.68912221      -2.04349149       3.26256272
C        2.87539351      -1.23356904       2.46594998
C        1.79176818      -1.79176818       1.79176818
C        1.50940915      -3.15011290       1.91225457
C        2.32012323      -3.95801942       2.71315727
N        5.58949640      -6.26100804       5.97699210
S        6.76622319      -7.11175859       6.76542356
C        7.00008850      -5.97949278       8.02938185
S        8.19987872      -6.18805515       9.29301538
C        7.59939310      -7.68419014      10.13705593
C        6.24841973      -7.50787108      10.78670841
C        5.14756908      -8.26478072      10.35713675
C        3.90112877      -8.11630396      10.97068733
C        3.74782093      -7.20946426      12.01687122
C        4.82885759      -6.45004501      12.45611367
C        6.07554758      -6.60225580      11.84593415
H        4.06618609      -5.35493899       4.02580758
H        5.35586272      -4.15802208       3.89647442
H        4.53559322      -1.59587933       3.77980563
H        3.09711122      -0.17339356       2.37656303
H        0.66613529      -3.59028708       1.38666478
H        2.08931342      -5.01848443       2.79488786
H        8.32653614      -7.95371410      10.91171462
H        7.58781528      -8.51963921       9.42827015
H        5.24947097      -8.98264737       9.54558642
H        3.05957005      -8.71375229      10.62927443
H        4.71456092      -5.73996468      13.27123832
H        6.91263469      -6.00471025      12.20380692
C        2.46417296      -7.06072015      12.65226327
C        1.38911777      -6.93614697      13.18440411
Br      -0.34915553      -6.73472266      14.04483085
C       -0.00445707       0.01189536      -1.78238275
H       -0.66409135       0.67374010      -2.43557963
H        0.65740317      -0.63156657      -2.45157240
C       -0.90989263      -0.90692880      -0.91072765
C        0.90977584       0.90977584      -0.90977584
C       -0.00465871       1.77757030       0.00794375
H       -0.66225468       2.44313916      -0.64384735
H        0.64322798       2.43503045       0.67728295
C       -1.78241447       0.00034974      -0.00472694
H       -2.45427497      -0.65498947       0.64260836
H       -2.43311707       0.67328779      -0.65473579
C       -0.91132561       0.90220522       0.91563759
C       -0.01476271      -0.02253852       1.78660255
H       -0.67934791      -0.69751639       2.42135241
H        0.63392994       0.61504881       2.47327442
C        0.01484550      -1.77751727      -0.01636693
H        0.67870853      -2.42144646      -0.68295456
H       -0.62264859      -2.45592969       0.64226336
C        1.78714474       0.01002794       0.00389507
H        2.44202412       0.67113390       0.66197326
H        2.45385902      -0.65136977      -0.64189061
C        0.91606151      -0.90478549       0.90901405
