166
Properties=species:S:1:pos:R:3 pbc="F F F"
N        7.21369195       8.61747634      -2.39991190
C        7.08446723       8.03265921      -3.39366973
C        6.91945213       7.33211292      -4.62344897
C        6.28159431       6.06304718      -4.78552739
S        5.57930493       5.12770394      -3.46340919
C        4.23219673       4.27487736      -4.33897385
C        3.39594137       3.40993156      -3.42491187
C        2.54115398       3.98369123      -2.47033121
C        1.74330035       3.17710612      -1.65450606
C        1.79176818       1.79176818      -1.79176818
C        2.63555070       1.20483710      -2.73138882
C        3.43686117       2.01164695      -3.54279181
N        6.23286799       5.57284015      -6.02178840
S        6.93319914       6.66053292      -7.04967328
C        7.34858718       7.81046261      -5.84991334
S        8.11982503       9.34330336      -6.21782087
C        9.72044058       8.80466034      -6.89553826
C       10.57907849       8.06628338      -5.89763734
C       10.92968362       6.72493898      -6.11486395
C       11.74038253       6.04623974      -5.20149780
C       12.20463276       6.70448717      -4.06503649
Br      13.30687016       5.78769357      -2.83354257
C       11.86677481       8.03504815      -3.83319332
C       11.06057429       8.71444950      -4.74871374
H        4.65831044       3.65384803      -5.13477419
H        3.57860998       5.01290569      -4.81884356
H        2.48997920       5.06481558      -2.35648341
H        1.08814030       3.63855458      -0.92037292
H        2.67530149       0.12455055      -2.84323510
H        4.08865722       1.53894385      -4.27508464
H       10.26452116       9.69431486      -7.23312884
H        9.54834230       8.19671000      -7.79067234
H       10.58173142       6.19597714      -6.99999620
H       12.00686419       5.00878012      -5.38695246
H       12.22521132       8.55321216      -2.94734044
H       10.80889897       9.75625900      -4.55599389
N       -4.71614534      -3.71698487      -9.79794997
C       -5.08890528      -4.44602275      -8.97586815
C       -5.56647560      -5.33693669      -7.97160174
C       -5.09312206      -5.41226431      -6.62478251
S       -3.80872197      -4.39712028      -5.96457582
C       -4.33407075      -4.28525092      -4.22672627
C       -3.42509897      -3.40953571      -3.39615012
C       -3.39959378      -2.01763581      -3.57794682
C       -2.58361931      -1.21136662      -2.77992659
C       -1.79176818      -1.79176818      -1.79176818
C       -1.80212629      -3.17089244      -1.59875790
C       -2.61398830      -3.97673110      -2.40058052
N       -5.66906156      -6.31910986      -5.83932512
S       -6.84334962      -7.09705513      -6.70300060
C       -6.58666189      -6.25171213      -8.17058911
S       -7.55407640      -6.51616654      -9.61070631
C       -7.15959475      -8.24599187     -10.01505256
C       -5.70870359      -8.46601349     -10.36828213
C       -4.90040796      -9.29438260      -9.57469600
C       -3.56238411      -9.51413831      -9.91159765
C       -3.02438499      -8.90620989     -11.04356154
Br      -1.21620819      -9.20951331     -11.50238481
C       -3.81139241      -8.08117267     -11.84245119
C       -5.14987802      -7.86569993     -11.50815958
H       -4.36060611      -5.29176759      -3.79455896
H       -5.35278449      -3.88323848      -4.17433626
H       -4.01726476      -1.55107440      -4.34293902
H       -2.57597693      -0.13576718      -2.93532369
H       -1.18736967      -3.62789104      -0.82782643
H       -2.61436921      -5.05254556      -2.23577094
H       -7.77619615      -8.54533883     -10.87042988
H       -7.46274866      -8.89050327      -9.18247270
H       -5.30465001      -9.78284769      -8.69020706
H       -2.95101914     -10.16252250      -9.28905513
H       -3.39636525      -7.60320331     -12.72619535
H       -5.75396252      -7.22169796     -12.14549138
N       -4.80400545       9.78242892       3.64464581
C       -5.27302963       8.94334140       4.29442514
C       -5.84251708       7.92283724       5.10965970
C       -5.71724082       6.51452794       4.89840013
S       -4.82129967       5.78569749       3.56342091
C       -4.26484308       4.23895578       4.34224908
C       -3.40411964       3.39985626       3.42680891
C       -2.10497364       3.80664976       3.08355301
C       -1.30206160       3.00632197       2.26652896
C       -1.79176818       1.79176818       1.79176818
C       -3.07886508       1.37321382       2.11969773
C       -3.88284833       2.17642827       2.93202333
N       -6.33056824       5.72246573       5.77446257
S       -7.05877647       6.66494406       6.91968480
C       -6.59138033       8.16975557       6.24782723
S       -6.97922534       9.71225743       6.98946648
C       -8.79660984       9.72586336       6.89816598
C       -9.32856659       9.72881015       5.48562247
C      -10.10020688       8.65611822       5.01316145
C      -10.60932147       8.66671104       3.71208756
C      -10.34916860       9.74959161       2.87539620
Br     -11.04400635       9.76624133       1.11785862
C       -9.58545824      10.82242549       3.32713255
C       -9.08093118      10.81371387       4.62909248
H       -5.14074670       3.65674213       4.64944383
H       -3.69329128       4.46749636       5.24957159
H       -1.70846235       4.75080375       3.45201208
H       -0.29916726       3.33753670       2.01036384
H       -3.46443897       0.42556756       1.75308062
H       -4.88523999       1.83460707       3.18283865
H       -9.15690344      10.62651909       7.40854233
H       -9.19387148       8.87665877       7.46519438
H      -10.31918431       7.80435747       5.65416298
H      -11.20939001       7.83016104       3.36304572
H       -9.37827496      11.66945270       2.67803626
H       -8.48938130      11.66226213       4.96950843
N        5.96482798      -2.87366429       9.39258792
C        6.02294666      -3.79635403       8.69149549
C        6.11524567      -4.92852201       7.83124633
C        5.36188551      -5.13441586       6.63386751
S        4.16286987      -4.00072911       6.00681908
C        4.31982315      -4.30573306       4.22049172
C        3.42167250      -3.41515085       3.39396145
C        3.67703909      -2.03943698       3.27870035
C        2.86318056      -1.22968323       2.48204874
C        1.79176818      -1.79176818       1.79176818
C        1.52167556      -3.15393365       1.89616742
C        2.33245787      -3.96174352       2.69709853
N        5.59233933      -6.26477081       5.97038640
S        6.76964419      -7.11171730       6.76204385
C        6.97993929      -5.98975869       8.03926515
S        8.16931375      -6.19904749       9.31258802
C        7.57540906      -7.70924882      10.13598129
C        6.21647011      -7.55257830      10.77395080
C        5.12740432      -8.31593928      10.32614296
C        3.87361648      -8.18572930      10.92877429
C        3.70113270      -7.29081091      11.98221280
Br       2.00644210      -7.12032232      12.80134189
C        4.77026704      -6.52522990      12.43951933
C        6.02430845      -6.65920441      11.84022467
H        4.07931126      -5.35441560       4.01320580
H        5.35830526      -4.14372208       3.90833189
H        4.51394750      -1.58869777       3.80863291
H        3.07527883      -0.16655854       2.40523044
H        0.68797215      -3.59712187       1.35799313
H        2.11134614      -5.02517101       2.76616856
H        8.29756700      -7.97928635      10.91511151
H        7.57901772      -8.53772906       9.41897785
H        5.24432542      -9.02472339       9.50865595
H        3.04138009      -8.78797899      10.57323769
H        4.64099430      -5.82438791      13.26038171
H        6.85191169      -6.05706383      12.21217633
C       -0.00445707       0.01189536      -1.78238275
H       -0.66409135       0.67374010      -2.43557963
H        0.65740317      -0.63156657      -2.45157240
C       -0.90989263      -0.90692880      -0.91072765
C        0.90977584       0.90977584      -0.90977584
C       -0.00465871       1.77757030       0.00794375
H       -0.66225468       2.44313916      -0.64384735
H        0.64322798       2.43503045       0.67728295
C       -1.78241447       0.00034974      -0.00472694
H       -2.45427497      -0.65498947       0.64260836
H       -2.43311707       0.67328779      -0.65473579
C       -0.91132561       0.90220522       0.91563759
C       -0.01476271      -0.02253852       1.78660255
H       -0.67934791      -0.69751639       2.42135241
H        0.63392994       0.61504881       2.47327442
C        0.01484550      -1.77751727      -0.01636693
H        0.67870853      -2.42144646      -0.68295456
H       -0.62264859      -2.45592969       0.64226336
C        1.78714474       0.01002794       0.00389507
H        2.44202412       0.67113390       0.66197326
H        2.45385902      -0.65136977      -0.64189061
C        0.91606151      -0.90478549       0.90901405
