130
Properties=species:S:1:pos:R:3 pbc="F F F"
F        2.65786562       8.93551233      -8.74992146
C        2.66769104       8.00898557      -7.78356840
C        3.68392446       7.06647440      -7.75060952
C        3.69085603       6.10304173      -6.74015658
C        2.67913273       6.06622125      -5.75752111
C        1.67068829       7.04732303      -5.80734203
Cl       0.41663019       7.18279962      -4.62115950
C        1.66581175       8.01181624      -6.82298824
C        2.76588318       5.01483624      -4.74609818
O        1.58929057       4.50770174      -4.26123148
C        1.97498861       3.53155164      -3.39228083
C        1.14681862       2.73602871      -2.61517183
C        1.80114009       1.80114009      -1.80114009
C        3.20709862       1.64275027      -1.79605742
N        3.82512593       0.78153251      -0.86016771
C        3.99104456       2.52036293      -2.58436956
C        3.35672249       3.46567994      -3.40859284
N        3.84597927       4.40460707      -4.29066591
H        4.46418988       7.08565318      -8.50559401
H        4.49570361       5.36755618      -6.71994865
H        0.89404656       8.77455454      -6.86924498
H        0.07021275       2.84988434      -2.63706996
H        3.24008684      -0.00132455      -0.57749234
H        4.76884547       0.50494571      -1.12182584
C        5.42907457       2.44523672      -2.57929646
C        6.63342470       2.38231852      -2.57504775
Br       8.58075701       2.28058511      -2.56817794
F      -10.22174768      -3.09078532      -7.03076642
C       -9.04113686      -3.01509140      -6.40401675
C       -8.48239698      -4.16049415      -5.85811726
C       -7.25035265      -4.07701670      -5.20668499
C       -6.56793751      -2.84799984      -5.08693774
C       -7.15238765      -1.70605083      -5.66691488
Cl      -6.39204685      -0.15047947      -5.67806298
C       -8.38907147      -1.79278791      -6.31875686
C       -5.28917954      -2.85822135      -4.37941670
O       -4.95798437      -1.74084622      -3.65939320
C       -3.76451128      -2.05339791      -3.08091188
C       -2.99354237      -1.23349228      -2.27098450
C       -1.80114009      -1.80114009      -1.80114009
C       -1.42092291      -3.13243621      -2.09254719
N       -0.14746818      -3.61171325      -1.70764473
C       -2.23795683      -3.89599262      -2.96182760
C       -3.43834729      -3.34752290      -3.44512508
N       -4.42925144      -3.85427404      -4.25772677
H       -9.00320663      -5.10959794      -5.94263250
H       -6.81667558      -4.98344664      -4.78308621
H       -8.84753809      -0.91861129      -6.77169670
H       -3.29898544      -0.22137071      -2.03681090
H        0.22021144      -3.16641413      -0.87005194
H       -0.08378230      -4.62709074      -1.68474398
C       -1.87613829      -5.23752804      -3.33994142
C       -1.57311527      -6.36106395      -3.65661175
Br      -1.08315267      -8.17772650      -4.16864089
F       -7.09524986       3.06236949      10.18568007
C       -6.37963875       3.02583403       9.05477224
C       -6.81330406       3.73957325       7.94813107
C       -6.06303619       3.69964956       6.77136859
C       -4.87690992       2.94055252       6.68541265
C       -4.45320195       2.24089609       7.83125532
Cl      -2.97544228       1.34143974       7.90370728
C       -5.20868592       2.28196139       9.00996892
C       -4.16511022       2.95265950       5.40904788
O       -3.50133399       1.81049796       5.04639184
C       -2.98743775       2.09458903       3.81679430
C       -2.20059348       1.26451140       3.03291427
C       -1.80114009       1.80114009       1.80114009
C       -2.20214744       3.08413881       1.35962006
N       -1.66306425       3.63135847       0.17240344
C       -2.97081694       3.89203129       2.23292881
C       -3.38301493       3.37489290       3.47308745
N       -4.14910346       3.90214093       4.49000785
H       -7.72729967       4.32315104       8.00498636
H       -6.40977492       4.26661590       5.90681761
H       -4.88961284       1.74798667       9.90024656
H       -1.91201817       0.27636295       3.36878593
H       -1.40370239       2.93125110      -0.51869886
H       -2.21708803       4.39250340      -0.21397441
C       -3.36310737       5.22731953       1.86318085
C       -3.69165061       6.34562342       1.55351694
Br      -4.22287723       8.15382624       1.05281659
F        9.84028772      -7.64742593       2.85558576
C        8.76689775      -6.84734548       2.84600178
C        7.69232922      -7.13532288       3.67335628
C        6.57568471      -6.29733789       3.66103174
C        6.51759487      -5.16832052       2.81695971
C        7.63152056      -4.89235948       2.00147332
Cl       7.74134228      -3.49682257       0.98242445
C        8.74980620      -5.73560127       2.01520877
C        5.30328837      -4.35660869       2.86692053
O        4.90006080      -3.75303113       1.70513185
C        3.73944169      -3.12143881       2.03794057
C        2.95204298      -2.33807146       1.20790471
C        1.80114009      -1.80114009       1.80114009
C        1.43617388      -2.06789283       3.14183961
N        0.34086848      -1.39499819       3.73095949
C        2.31202027      -2.84209832       3.94165845
C        3.47188041      -3.39091620       3.36819866
N        4.46793196      -4.19519671       3.87812358
H        7.72765868      -8.00465439       4.32312400
H        5.73635379      -6.52950993       4.31734472
H        9.61530685      -5.53053912       1.39200010
H        3.22746140      -2.15243505       0.17727060
H       -0.38328760      -1.13367716       3.06586507
H       -0.02300281      -1.85737037       4.56124946
C        2.02327488      -3.10208375       5.32824912
C        1.78145062      -3.31982154       6.48951881
Br       1.39044125      -3.67188514       8.36719367
C       -0.00445707       0.01189536      -1.78238275
H       -0.66409135       0.67374010      -2.43557963
H        0.65740317      -0.63156657      -2.45157240
C       -0.90989263      -0.90692880      -0.91072765
C        0.90977584       0.90977584      -0.90977584
C       -0.00465871       1.77757030       0.00794375
H       -0.66225468       2.44313916      -0.64384735
H        0.64322798       2.43503045       0.67728295
C       -1.78241447       0.00034974      -0.00472694
H       -2.45427497      -0.65498947       0.64260836
H       -2.43311707       0.67328779      -0.65473579
C       -0.91132561       0.90220522       0.91563759
C       -0.01476271      -0.02253852       1.78660255
H       -0.67934791      -0.69751639       2.42135241
H        0.63392994       0.61504881       2.47327442
C        0.01484550      -1.77751727      -0.01636693
H        0.67870853      -2.42144646      -0.68295456
H       -0.62264859      -2.45592969       0.64226336
C        1.78714474       0.01002794       0.00389507
H        2.44202412       0.67113390       0.66197326
H        2.45385902      -0.65136977      -0.64189061
C        0.91606151      -0.90478549       0.90901405
