101
Properties=species:S:1:pos:R:3 pbc="F F F"
C        0.00000000       0.00000000       0.00000000
F        1.74796159       8.02560830      -7.84001744
C        1.75778702       7.09908155      -6.87366437
C        2.77402044       6.15657038      -6.84070550
C        2.78095201       5.19313771      -5.83025255
C        1.76922871       5.15631723      -4.84761709
C        0.76078427       6.13741900      -4.89743801
Cl      -0.49327384       6.27289559      -3.71125547
C        0.75590773       7.10191221      -5.91308422
C        1.85597915       4.10493221      -3.83619415
O        0.67938655       3.59779771      -3.35132745
C        1.06508458       2.62164762      -2.48237680
C        0.23691459       1.82612468      -1.70526781
C        0.89123607       0.89123607      -0.89123607
C        2.29719460       0.73284625      -0.88615340
N        2.91522191      -0.12837151       0.04973631
C        3.08114053       1.61045891      -1.67446553
Br       4.97841111       1.51134084      -1.66777233
C        2.44681847       2.55577592      -2.49868882
N        2.93607525       3.49470305      -3.38076188
H        3.55428586       6.17574915      -7.59568999
H        3.58579958       4.45765215      -5.81004463
H       -0.01585746       7.86465051      -5.95934095
H       -0.83969128       1.93998032      -1.72716594
H        2.33018282      -0.91122858       0.33241168
H        3.85894144      -0.40495831      -0.21192181
F       -8.55716137      -7.23904270      -1.81738327
C       -7.54487033      -6.36290085      -1.82276176
C       -6.51824787      -6.51024286      -2.74280558
C       -5.46538398      -5.59332665      -2.74563164
C       -5.42309666      -4.52512951      -1.82493685
C       -6.48891965      -4.39187718      -0.91484445
Cl      -6.61913986      -3.08351931       0.21178194
C       -7.54315373      -5.31404710      -0.91370333
C       -4.27594732      -3.62260962      -1.89854857
O       -3.82953547      -3.07329773      -0.72567851
C       -2.74449725      -2.33415313      -1.09045863
C       -1.95359873      -1.55375458      -0.26095377
C       -0.89123607      -0.89123607      -0.89123607
C       -0.61066256      -1.03500542      -2.27052626
N        0.38717346      -0.24173056      -2.88255699
C       -1.48790082      -1.81508365      -3.06308051
Br      -1.22294689      -1.99922671      -4.93535068
C       -2.55983157      -2.48871437      -2.45273727
N       -3.53265303      -3.32810839      -2.95077876
H       -6.54144757      -7.33204539      -3.45223204
H       -4.66375592      -5.71490503      -3.47483541
H       -8.37140881      -5.21908728      -0.21763791
H       -2.16280715      -1.46216774       0.79751991
H        1.13933298       0.02619489      -2.25207042
H        0.71888884      -0.61595759      -3.76883619
F       -4.36145652       9.95020765       3.30192317
C       -4.00362550       8.68700111       3.03990633
C       -3.92479846       7.76986763       4.07663022
C       -3.55260571       6.45330182       3.79843474
C       -3.24780664       6.04145169       2.48390469
C       -3.35408059       6.99131944       1.45024126
Cl      -3.09893300       6.61167805      -0.21973383
C       -3.72656719       8.31165651       1.73268046
C       -2.85865814       4.64577804       2.29266933
O       -1.94696433       4.37479614       1.30675125
C       -1.74372477       3.03032501       1.39505922
C       -0.92278403       2.25905307       0.58646998
C       -0.89123607       0.89123607       0.89123607
C       -1.61078059       0.33192844       1.97348522
N       -1.65184495      -1.06981317       2.15508231
C       -2.46213046       1.17466392       2.72927059
Br      -3.51730249       0.48804281       4.15217898
C       -2.50986391       2.54959302       2.44182627
N       -3.20062746       3.59436685       3.01654587
H       -4.15402725       8.07993367       5.09176408
H       -3.49630547       5.73778522       4.61940567
H       -3.81397468       9.05162715       0.94253218
H       -0.36042392       2.69616394      -0.22913288
H       -0.82215776      -1.55002251       1.81440730
H       -1.92266431      -1.35146865       3.09470929
F        6.72750550      -1.94883767       8.93724417
C        5.92895072      -1.93885996       7.86272226
C        6.21965400      -2.76425851       6.78738380
C        5.38325280      -2.75153248       5.66955699
C        4.25310998      -1.90899632       5.61105672
C        3.97438368      -1.09550510       6.72575250
Cl       2.57723029      -0.07861519       6.83503175
C        4.81604134      -1.10963685       7.84522596
C        3.44321117      -1.95837777       4.39551659
O        2.83854572      -0.79687768       3.99308832
C        2.20909492      -1.12892542       2.83108866
C        1.42566639      -0.29888387       2.04375682
C        0.89123607      -0.89123607       0.89123607
C        1.16043462      -2.23102705       0.52473257
N        0.48995575      -2.81953831      -0.57237997
C        1.93453124      -3.03099167       1.40054206
Br       2.28071375      -4.85935382       1.01745672
C        2.48086359      -2.45841084       2.56200877
N        3.28444705      -2.96861150       3.55848163
H        7.08986533      -3.41283013       6.82302953
H        5.61756843      -3.40630730       4.82962063
H        4.60884555      -0.48796498       8.71132347
H        1.23815714       0.73108702       2.32038486
H        0.22871850      -2.15378069      -1.29595663
H        0.95403949      -3.64864212      -0.93677666
