122
Properties=species:S:1:pos:R:3 pbc="F F F"
F        2.65786562       8.93551233      -8.74992146
C        2.66769104       8.00898557      -7.78356840
C        3.68392446       7.06647440      -7.75060952
C        3.69085603       6.10304173      -6.74015658
C        2.67913273       6.06622125      -5.75752111
C        1.67068829       7.04732303      -5.80734203
Cl       0.41663019       7.18279962      -4.62115950
C        1.66581175       8.01181624      -6.82298824
C        2.76588318       5.01483624      -4.74609818
O        1.58929057       4.50770174      -4.26123148
C        1.97498861       3.53155164      -3.39228083
C        1.14681862       2.73602871      -2.61517183
C        1.80114009       1.80114009      -1.80114009
C        3.20709862       1.64275027      -1.79605742
N        3.82512593       0.78153251      -0.86016771
C        3.99104456       2.52036293      -2.58436956
Br       5.88831514       2.42124487      -2.57767635
C        3.35672249       3.46567994      -3.40859284
N        3.84597927       4.40460707      -4.29066591
H        4.46418988       7.08565318      -8.50559401
H        4.49570361       5.36755618      -6.71994865
H        0.89404656       8.77455454      -6.86924498
H        0.07021275       2.84988434      -2.63706996
H        3.24008684      -0.00132455      -0.57749234
H        4.76884547       0.50494571      -1.12182584
F      -10.57118219      -3.47685219      -6.29526504
C       -9.34283960      -3.33555719      -5.78184822
C       -8.61970466      -4.46163319      -5.41967054
C       -7.33856838      -4.30948926      -4.88599669
C       -6.77003271      -3.03153400      -4.70130839
C       -7.52194578      -1.90833384      -5.09507373
Cl      -6.92220073      -0.28614726      -5.01224131
C       -8.80739944      -2.06416351      -5.62905329
C       -5.42751187      -2.97251155      -4.12679418
O       -5.13084668      -1.90130179      -3.32607532
C       -3.85721703      -2.13805059      -2.90355345
C       -3.08680553      -1.32245400      -2.08875962
C       -1.80114009      -1.80114009      -1.80114009
C       -1.32688628      -3.04894423      -2.27007580
N        0.02121074      -3.42318911      -2.06484778
C       -2.15475935      -3.80798535      -3.13303235
Br      -1.56409548      -5.45913694      -3.86400394
C       -3.44791401      -3.34782702      -3.43525424
N       -4.46668011      -3.87705949      -4.19751265
H       -9.05177819      -5.44863669      -5.55502218
H       -6.77561194      -5.20072287      -4.60687363
H       -9.39491041      -1.20466128      -5.93827438
H       -3.46220374      -0.37680357      -1.71815974
H        0.43203787      -3.02442693      -1.22386557
H        0.18546853      -4.42315224      -2.15793331
F       -3.81961243       5.77556103      10.74812596
C       -3.62155083       5.34145039       9.49724380
C       -4.71185094       5.11886238       8.67029506
C       -4.50039812       4.66752773       7.36612849
C       -3.19903967       4.42643018       6.87740524
C       -2.11155742       4.67860754       7.73518839
Cl      -0.45822178       4.51467469       7.24769284
C       -2.32698460       5.13022150       9.04341013
C       -3.07840260       3.94597082       5.50244417
O       -2.04726024       3.08871537       5.22224818
C       -2.21524598       2.77716226       3.90641283
C       -1.40305143       1.95915217       3.13581556
C       -1.80114009       1.80114009       1.80114009
C       -2.97247755       2.39674566       1.27668311
N       -3.25606047       2.31711667      -0.10635098
C       -3.72940146       3.25424087       2.11213471
Br      -5.27434158       4.14960119       1.46329359
C       -3.34927454       3.42766144       3.45405929
N       -3.89941876       4.15384755       4.48798595
H       -5.71690983       5.29831974       9.04020750
H       -5.36349939       4.49817587       6.72153318
H       -1.49518139       5.33019048       9.71247420
H       -0.51765666       1.49150239       3.54800800
H       -2.88780877       1.47941172      -0.55096586
H       -4.23136084       2.49792001      -0.33366383
F        9.85945992      -7.61935121       2.86448829
C        8.78290573      -6.82354766       2.85379162
C        7.70619715      -7.11915742       3.67565381
C        6.58624757      -6.28561229       3.66219448
C        6.52699827      -5.15344899       2.82242783
C        7.64306417      -4.86974540       2.01254378
Cl       7.75135250      -3.46968962       0.99954718
C        8.76467036      -5.70854634       2.02739952
C        5.30924435      -4.34681874       2.87075450
O        4.90825108      -3.74019157       1.70978114
C        3.74377481      -3.11460105       2.04044522
C        2.95656323      -2.33106204       1.21039388
C        1.80114009      -1.80114009       1.80114009
C        1.43187927      -2.07474713       3.13927992
N        0.33152203      -1.40862469       3.72667943
C        2.30762135      -2.84864829       3.93950740
Br       1.92071763      -3.20054506       5.76597367
C        3.47197017      -3.39050024       3.36852487
N        4.46919851      -4.19282741       3.87922632
H        7.74242016      -7.99094829       4.32206861
H        5.74523381      -6.52378630       4.31418833
H        9.63182984      -5.49751012       1.40850611
H        3.23536129      -2.14017682       0.18162894
H       -0.39100809      -1.14753388       3.05972884
H       -0.03381069      -1.87578947       4.55363824
C       -0.00445707       0.01189536      -1.78238275
H       -0.66409135       0.67374010      -2.43557963
H        0.65740317      -0.63156657      -2.45157240
C       -0.90989263      -0.90692880      -0.91072765
C        0.90977584       0.90977584      -0.90977584
C       -0.00465871       1.77757030       0.00794375
H       -0.66225468       2.44313916      -0.64384735
H        0.64322798       2.43503045       0.67728295
C       -1.78241447       0.00034974      -0.00472694
H       -2.45427497      -0.65498947       0.64260836
H       -2.43311707       0.67328779      -0.65473579
C       -0.91132561       0.90220522       0.91563759
C       -0.01476271      -0.02253852       1.78660255
H       -0.67934791      -0.69751639       2.42135241
H        0.63392994       0.61504881       2.47327442
C        0.01484550      -1.77751727      -0.01636693
H        0.67870853      -2.42144646      -0.68295456
H       -0.62264859      -2.45592969       0.64226336
C        1.78714474       0.01002794       0.00389507
H        2.44202412       0.67113390       0.66197326
H        2.45385902      -0.65136977      -0.64189061
C        0.91606151      -0.90478549       0.90901405
