182
Properties=species:S:1:pos:R:3 pbc="F F F"
N        2.04219637       2.27741709      -6.95474512
C        2.89848788       2.94323903      -7.36665347
C        3.97573523       3.75551196      -7.83632237
C        5.23507297       3.77482801      -7.26590122
S        5.85537947       2.82305591      -5.92677423
C        5.68253014       4.00482263      -4.55810231
C        4.22191537       4.30239902      -4.29379005
O        3.67781651       5.26910151      -4.83127944
C        3.41400202       3.40439044      -3.40914668
C        3.94091879       2.25891148      -2.79835228
C        3.12928036       1.45548763      -1.98913922
C        1.79143246       1.79143246      -1.79143246
C        1.25372538       2.92402209      -2.39569104
C        2.06389630       3.72788860      -3.20186564
S        6.19395198       4.91022594      -8.11660237
N        5.01328121       5.38881687      -9.17434978
C        3.91529589       4.67509539      -8.93122163
S        2.48017940       4.89210302      -9.93701526
C        3.06447886       6.04081190     -11.21006738
C        4.18321710       5.45904036     -12.05671097
O        4.30927453       4.26243507     -12.30874106
C        5.16680940       6.41496730     -12.63822285
C        6.48931132       5.98955485     -12.81843447
C        7.44219544       6.86398817     -13.34724551
C        7.06766787       8.15788214     -13.70644740
Br       8.35387214       9.34327022     -14.42249734
C        5.74991638       8.58523461     -13.54489357
C        4.79643999       7.71374633     -13.01041117
H        6.19203270       4.94317924      -4.80392147
H        6.17507331       3.62449429      -3.65954074
H        4.97185675       1.94951574      -2.93811141
H        3.54763998       0.56567001      -1.52451979
H        0.20846337       3.18773963      -2.25591377
H        1.62793687       4.60507242      -3.67780012
H        3.38300629       6.96644689     -10.72136809
H        2.22507250       6.27175936     -11.87348521
H        6.78167758       4.97924230     -12.53701757
H        8.46773417       6.52642713     -13.47405564
H        5.45520800       9.59097286     -13.83493632
H        3.77217392       8.06188845     -12.90929903
N       -4.93514249      -5.74615734      -0.59305874
C       -5.39957061      -6.32177469      -1.48703508
C       -5.93754078      -7.01673772      -2.61329105
C       -5.23272443      -7.26688237      -3.77619540
S       -3.56181545      -6.88495780      -4.15843636
C       -3.77101218      -5.35667827      -5.11776462
C       -4.32351548      -4.25134451      -4.24324444
O       -5.53887245      -4.05378502      -4.18553999
C       -3.40392677      -3.41335582      -3.41025655
C       -2.01607923      -3.60249362      -3.37960970
C       -1.21209978      -2.79008086      -2.57172658
C       -1.79143246      -1.79143246      -1.79143246
C       -3.16922347      -1.59545230      -1.80876275
C       -3.97233779      -2.40457493      -2.61673782
S       -6.26769211      -8.08579592      -4.86729227
N       -7.59932646      -8.09397616      -3.88314524
C       -7.26890628      -7.53018187      -2.72252476
S       -8.45238923      -7.44200170      -1.41490675
C       -9.85115431      -8.37479405      -2.08940979
C       -9.51136208      -9.83076875      -2.35683760
O       -8.68934630     -10.47887594      -1.71222843
C      -10.25170084     -10.51390480      -3.45439390
C       -9.59880880     -11.51937791      -4.17911394
C      -10.25722555     -12.17120875      -5.22499483
C      -11.57138640     -11.82492630      -5.53568471
Br     -12.46527184     -12.70487551      -6.94949235
C      -12.23454420     -10.83580685      -4.80969351
C      -11.57545277     -10.17833908      -3.76680565
H       -4.46489548      -5.52546858      -5.94876934
H       -2.82403464      -5.05950610      -5.57556760
H       -1.52382958      -4.37859572      -3.95705860
H       -0.13653868      -2.94957756      -2.55171354
H       -3.63092371      -0.82611053      -1.19508253
H       -5.05008223      -2.24812847      -2.61259871
H      -10.19114200      -7.87712929      -3.00254997
H      -10.66488031      -8.34758182      -1.35785495
H       -8.57217637     -11.78899985      -3.93676123
H       -9.73789330     -12.94342053      -5.78690312
H      -13.26317199     -10.57299868      -5.04494650
H      -12.11670331      -9.42320016      -3.20345793
N       -0.58911861       5.72435089       4.96088909
C       -1.45497892       6.14436161       5.60903985
C       -2.54202669       6.62232903       6.40321384
C       -3.51246524       5.80728236       6.95605459
S       -3.64750910       4.05725902       6.90044149
C       -4.84539375       3.84925670       5.55080462
C       -4.25615184       4.32277979       4.23917280
O       -4.44310999       5.47929203       3.85579543
C       -3.40868208       3.40464201       3.41421505
C       -3.10667595       2.09195679       3.79954983
C       -2.30015372       1.28707587       2.98667763
C       -1.79143246       1.79143246       1.79143246
C       -2.07973112       3.09511176       1.39859564
C       -2.88668065       3.89855865       2.20841124
S       -4.63422605       6.79590375       7.79065050
N       -3.90947599       8.23970223       7.42726965
C       -2.80594749       7.99188038       6.72378505
S       -1.75473126       9.32274173       6.23182469
C       -2.51811374      10.74743248       7.04981192
C       -2.50178189      10.63295496       8.56423158
O       -1.63347226      10.04300431       9.20397409
C       -3.59824489      11.31004016       9.31171450
C       -4.03893755      10.74357940      10.51478370
C       -5.07537354      11.34313802      11.23491756
C       -5.66033312      12.51478607      10.75687821
Br      -7.06222637      13.32879571      11.72861762
C       -5.21777314      13.09430104       9.56797038
C       -4.18497044      12.49264906       8.84297799
H       -5.75090438       4.43039587       5.75783315
H       -5.16863043       2.80733478       5.48314313
H       -3.46646240       1.66341808       4.72960343
H       -2.06781705       0.27147907       3.29853367
H       -1.67831016       3.50050718       0.47329943
H       -3.09544471       4.92041303       1.89495167
H       -3.54057294      10.85478772       6.67546061
H       -1.95336871      11.64341991       6.77352845
H       -3.58244708       9.82806772      10.88742265
H       -5.41585509      10.88987569      12.16248616
H       -5.66669107      14.01400970       9.20041641
H       -3.84439953      12.97045611       7.92850576
N        6.95663197      -2.08970985       2.22801676
C        7.36665181      -2.94340391       2.89832466
C        7.83369240      -4.01714571       3.71673145
C        7.25086791      -5.27036922       3.75456506
S        5.89597939      -5.88658241       2.82264780
C        4.54118310      -5.68797643       4.01629554
C        4.29459987      -4.22183618       4.30166838
O        4.84731822      -3.67353366       5.25734558
C        3.40904959      -3.41404933       3.40444022
C        2.78139127      -3.94622413       2.27056715
C        1.97226136      -3.13452776       1.46711809
C        1.79143246      -1.79143246       1.79143246
C        2.41253322      -1.24853164       2.91237366
C        3.21864421      -2.05872535       3.71628097
S        8.10337232      -6.22637569       4.89103228
N        9.17773796      -5.05175451       5.34695539
C        8.93842404      -3.95858640       4.62460247
S        9.96074277      -2.53164716       4.81690775
C       11.23945511      -3.11726670       5.95863633
C       12.06886099      -4.25033425       5.37977319
O       12.30744907      -4.39096486       4.18203673
C       12.65013301      -5.23012225       6.33974429
C       12.81271443      -6.55859475       5.92599146
C       13.34077223      -7.50796172       6.80469517
C       13.71683892      -7.12411439       8.09104410
Br      14.43192345      -8.40554313       9.28217312
C       13.57288534      -5.80056176       8.50659745
C       13.03919262      -4.85051541       7.63088947
H        4.79138338      -6.19049134       4.95725869
H        3.63390114      -6.17516883       3.65003837
H        2.90763279      -4.98158562       1.97026549
H        1.49444997      -3.55707096       0.58630886
H        2.28595375      -0.19930650       3.16685652
H        3.70781812      -1.61882601       4.58416527
H       10.75700224      -3.42149618       6.89232284
H       11.91358699      -2.28236051       6.17436958
H       12.51812983      -6.85822863       4.92157899
H       13.45383437      -8.53807614       6.47630642
H       13.87607200      -5.49871957       9.50632560
H       12.95192049      -3.82182807       7.96961284
C       -0.00445707       0.01189536      -1.78238275
H       -0.66409135       0.67374010      -2.43557963
H        0.65740317      -0.63156657      -2.45157240
C       -0.90989263      -0.90692880      -0.91072765
C        0.90977584       0.90977584      -0.90977584
C       -0.00465871       1.77757030       0.00794375
H       -0.66225468       2.44313916      -0.64384735
H        0.64322798       2.43503045       0.67728295
C       -1.78241447       0.00034974      -0.00472694
H       -2.45427497      -0.65498947       0.64260836
H       -2.43311707       0.67328779      -0.65473579
C       -0.91132561       0.90220522       0.91563759
C       -0.01476271      -0.02253852       1.78660255
H       -0.67934791      -0.69751639       2.42135241
H        0.63392994       0.61504881       2.47327442
C        0.01484550      -1.77751727      -0.01636693
H        0.67870853      -2.42144646      -0.68295456
H       -0.62264859      -2.45592969       0.64226336
C        1.78714474       0.01002794       0.00389507
H        2.44202412       0.67113390       0.66197326
H        2.45385902      -0.65136977      -0.64189061
C        0.91606151      -0.90478549       0.90901405
