165
Properties=species:S:1:pos:R:3 pbc="F F F"
C        0.00000000       0.00000000       0.00000000
C        0.88122159       0.88122159      -0.88122159
C        2.19856031       0.51356630      -1.13310288
C        3.01382598       1.33812835      -1.91730517
C        2.52095607       2.51997084      -2.48202779
C        1.19007601       2.87434534      -2.20172431
C        0.37099610       2.06095114      -1.41184765
N        3.33037267       3.45027656      -3.15517168
C        4.66176802       3.35006288      -3.64405993
N        5.23498643       2.14982413      -3.88208689
C        6.51097466       2.15629525      -4.31143466
C        7.14662222       0.94854481      -4.58163072
C        8.47546244       0.90698687      -5.00927881
C        9.18206818       2.09110167      -5.16828549
C        8.55056971       3.30862181      -4.91000141
C        7.22625967       3.36130540      -4.49079270
N        6.66091376       4.55947959      -4.26023615
C        5.38242313       4.56405727      -3.82573544
N        4.70061006       5.78082035      -3.52761158
C        5.11063373       7.11874120      -3.69005794
C        4.38486929       8.12288506      -3.02583945
C        4.69165415       9.47655308      -3.19663838
C        5.72041804       9.84384171      -4.05684410
C        6.42777914       8.87171068      -4.75604113
C        6.10914885       7.51928148      -4.58422816
H        2.61234888      -0.39954661      -0.71398786
H        4.04764512       1.04006341      -2.06770123
H        0.77955846       3.80667563      -2.58241173
H       -0.65108580       2.36660617      -1.20601123
H        2.81148955       4.10829836      -3.73016264
H        6.59381132       0.02173961      -4.45489971
H        8.95243730      -0.04865305      -5.21167606
H       10.21986012       2.07395334      -5.49179000
H        9.10222546       4.23704204      -5.03232290
H        4.19495191       5.64179821      -2.65463377
H        3.56529976       7.85865777      -2.36176428
H        4.11948036      10.22854489      -2.66060300
H        7.22277501       9.14731603      -5.44345063
H        6.66097393       6.78675160      -5.16594362
C        6.04400921      11.23565973      -4.23497700
C        6.31501683      12.40130733      -4.38416330
Br       6.75321321      14.28606091      -4.62538494
C       -0.88122159      -0.88122159      -0.88122159
C       -0.88006350      -2.26063295      -0.70453303
C       -1.66654636      -3.06944925      -1.53326388
C       -2.48279699      -2.51466003      -2.52549767
C       -2.45593225      -1.11921051      -2.69100290
C       -1.66629629      -0.30415447      -1.87334413
N       -3.17918812      -3.28445916      -3.47217363
C       -3.45158645      -4.67896279      -3.52534158
N       -3.40446506      -5.44748158      -2.41495081
C       -3.64421763      -6.76298007      -2.57150689
C       -3.61842779      -7.59881310      -1.45955685
C       -3.84110997      -8.97240695      -1.57821120
C       -4.09216598      -9.52098305      -2.82830632
C       -4.13061107      -8.68978781      -3.94879404
C       -3.91736499      -7.32043798      -3.84055479
N       -3.97032370      -6.56113001      -4.94917578
C       -3.72772184      -5.24077525      -4.80371874
N       -3.73426881      -4.35399115      -5.92078203
C       -4.05603562      -4.59191154      -7.27148571
C       -3.67631828      -3.63176627      -8.22550925
C       -4.02343561      -3.76807434      -9.57333565
C       -4.77832730      -4.86248552      -9.98029102
C       -5.20007944      -5.80592486      -9.04952666
C       -4.85385171      -5.65771220      -7.70109457
H       -0.26153804      -2.72431500       0.05906292
H       -1.61791790      -4.14551478      -1.39197709
H       -3.03966464      -0.64965188      -3.47932930
H       -1.66040726       0.77069280      -2.03181714
H       -3.92254480      -2.78002897      -3.94737679
H       -3.41966926      -7.16930951      -0.48147188
H       -3.81325294      -9.60651790      -0.69568946
H       -4.25837847     -10.58983031      -2.93739468
H       -4.32549595      -9.11720666      -4.92888779
H       -2.93069521      -3.73577970      -5.82490898
H       -3.10032486      -2.75939374      -7.92600320
H       -3.70543556      -3.01467892     -10.28851378
H       -5.80420337      -6.65656103      -9.35277726
H       -5.22253209      -6.39604629      -6.99509078
C       -5.13653377      -5.01101669     -11.36709548
C       -5.43653168      -5.13541155     -12.52854422
Br      -5.92160294      -5.33654752     -14.40650860
C       -0.88122159       0.88122159       0.88122159
C       -0.29995171       1.83125472       1.71402305
C       -1.10799312       2.61811351       2.54315287
C       -2.50149342       2.48918455       2.53227673
C       -3.06230701       1.51327197       1.69056668
C       -2.26190274       0.71652795       0.86536420
N       -3.34521129       3.14971526       3.44089436
C       -3.09356034       4.22071754       4.34161296
N       -2.04517127       5.05503815       4.16668803
C       -1.86966777       6.01812501       5.09091179
C       -0.81159110       6.91113332       4.95407332
C       -0.57969520       7.91269160       5.89934133
C       -1.41732232       8.02351941       7.00061361
C       -2.48789776       7.13935274       7.14194242
C       -2.73163028       6.14354715       6.20318034
N       -3.77951283       5.31977806       6.38133861
C       -3.96240781       4.34790011       5.46190793
N       -5.02851385       3.40703558       5.57349256
C       -6.08434258       3.33200804       6.50308226
C       -6.81320231       2.13289860       6.58749289
C       -7.91728026       2.01051880       7.43704655
C       -8.32034796       3.10080404       8.19995184
C       -7.64019473       4.31021455       8.10512167
C       -6.54023990       4.42570838       7.24671020
H        0.77844447       1.96084234       1.74439226
H       -0.62131825       3.32762201       3.20646950
H       -4.13713288       1.34777244       1.68374050
H       -2.72471275      -0.03532940       0.23214825
H       -4.31997647       3.17546541       3.15450867
H       -0.15481529       6.82263204       4.09300330
H        0.25510311       8.59745096       5.77311246
H       -1.24380758       8.79244273       7.74935315
H       -3.14424134       7.22317868       8.00417039
H       -4.64891140       2.48770486       5.35476762
H       -6.52563520       1.27319676       5.98688985
H       -8.45329777       1.06698196       7.48834854
H       -7.95575929       5.17391939       8.68386299
H       -6.04830574       5.39123251       7.17413090
C       -9.45427731       2.98096131       9.07940732
C      -10.40394315       2.88059302       9.81595129
Br     -11.93947248       2.71830599      11.00688058
C        0.88122159      -0.88122159       0.88122159
C        1.17007627      -0.49080655       2.18434667
C        2.00246830      -1.28570439       2.98108681
C        2.53222949      -2.48906813       2.50165708
C        2.23465669      -2.85407312       1.17741585
C        1.41110863      -2.06140606       0.37128020
N        3.48137615      -3.24947453       3.20497023
C        3.91950177      -3.18050885       4.55588021
N        3.16651434      -2.59030988       5.51007323
C        3.68122518      -2.54423397       6.75324543
C        2.94364729      -1.95684000       7.77631045
C        3.44677083      -1.86882157       9.07613573
C        4.70819771      -2.37431839       9.35893924
C        5.45205062      -2.97495200       8.34219030
C        4.95756399      -3.07397450       7.04681928
N        5.71053533      -3.66671739       6.10337678
C        5.20507146      -3.71497794       4.85216645
N        5.93532575      -4.29870118       3.77501505
C        7.17035586      -4.97637053       3.77270648
C        7.82051055      -5.17142429       2.54165896
C        9.01365845      -5.89576387       2.45542328
C        9.56126212      -6.45548127       3.60436044
C        8.91681114      -6.31046108       4.82825873
C        7.71901118      -5.58959977       4.90404753
H        0.77205419       0.43529057       2.59002650
H        2.23612006      -0.93638966       3.98290005
H        2.66173566      -3.75784611       0.74906405
H        1.20667515      -2.36619747      -0.65134103
H        3.57244460      -4.20538502       2.87212093
H        1.95716096      -1.55927529       7.55401438
H        2.85360473      -1.40290742       9.85894817
H        5.11671717      -2.30483732      10.36404897
H        6.44062454      -3.37013231       8.56083355
H        5.83919342      -3.68147546       2.97071501
H        7.40056537      -4.75691765       1.62823879
H        9.49808919      -6.01958629       1.49095279
H        9.32632249      -6.75713249       5.73008669
H        7.22586589      -5.51872307       5.86908020
C       10.79136436      -7.19973742       3.52354416
C       11.82157498      -7.82305195       3.45586053
Br      13.48733843      -8.83089881       3.34642181
