178
Properties=species:S:1:pos:R:3 pbc="F F F"
C        1.79112562       1.79112562      -1.79112562
C        3.10846433       1.42347032      -2.04300690
C        3.92373000       2.24803237      -2.82720920
C        3.43086009       3.42987486      -3.39193181
C        2.09998003       3.78424937      -3.11162834
C        1.28090012       2.97085516      -2.32175168
N        4.24027670       4.36018059      -4.06507570
C        5.57167204       4.25996690      -4.55396396
N        6.14489046       3.05972816      -4.79199091
C        7.42087869       3.06619928      -5.22133869
C        8.05652624       1.85844883      -5.49153474
C        9.38536646       1.81689090      -5.91918284
C       10.09197221       3.00100569      -6.07818952
C        9.46047373       4.21852583      -5.81990543
C        8.13616369       4.27120942      -5.40069672
N        7.57081778       5.46938361      -5.17014017
C        6.29232715       5.47396129      -4.73563947
N        5.61051408       6.69072437      -4.43751560
C        6.02053775       8.02864523      -4.59996197
C        5.29477331       9.03278908      -3.93574347
C        5.60155817      10.38645711      -4.10654240
C        6.63032206      10.75374573      -4.96674812
Br       7.05487457      12.57981480      -5.20045898
C        7.33768317       9.78161470      -5.66594515
C        7.01905287       8.42918550      -5.49413218
H        3.52225290       0.51035741      -1.62389188
H        4.95754914       1.94996744      -2.97760525
H        1.68946249       4.71657965      -3.49231576
H        0.25881823       3.27651019      -2.11591525
H        3.72139358       5.01820239      -4.64006667
H        7.50371535       0.93164363      -5.36480373
H        9.86234132       0.86125097      -6.12158009
H       11.12976414       2.98385736      -6.40169403
H       10.01212949       5.14694606      -5.94222693
H        5.10485593       6.55170223      -3.56453780
H        4.47520378       8.76856179      -3.27166830
H        5.02938439      11.13844892      -3.57050703
H        8.13267903      10.05722005      -6.35335465
H        7.57087796       7.69665563      -6.07584765
C       -1.79112562      -1.79112562      -1.79112562
C       -1.33649849      -3.04101791      -2.19742515
C       -2.13394560      -3.83525602      -3.02976994
C       -3.40121063      -3.40863105      -3.44282508
C       -3.83133161      -2.13649219      -3.02803394
C       -3.03735965      -1.33247417      -2.20367315
N       -4.17886291      -4.09966533      -4.38700475
C       -4.05161392      -5.41009488      -4.92389410
N       -3.34711709      -6.36775980      -4.28173264
C       -3.25527050      -7.56750291      -4.88564325
C       -2.55008357      -8.59288710      -4.26353914
C       -2.41190118      -9.84679532      -4.86274369
C       -2.98607287     -10.08039184      -6.10470270
C       -3.70446355      -9.06181983      -6.73262162
C       -3.85391686      -7.81255445      -6.14159852
N       -4.56022947      -6.86577122      -6.78434088
C       -4.65544374      -5.65756902      -6.18891515
N       -5.36005215      -4.57858140      -6.80012051
C       -6.12265479      -4.54244735      -7.98404280
C       -6.44497013      -3.28792676      -8.53040898
C       -7.25661727      -3.17437589      -9.66356452
C       -7.77628997      -4.32131322     -10.25321272
Br      -8.87016152      -4.17804854     -11.78693830
C       -7.50465183      -5.57190465      -9.70868655
C       -6.69682959      -5.67561558      -8.56992538
H       -0.35947166      -3.40524141      -1.89178913
H       -1.73632584      -4.79187067      -3.35692533
H       -4.78971878      -1.74618168      -3.36245743
H       -3.39413379      -0.35003501      -1.90707487
H       -5.15884512      -3.83046163      -4.39035588
H       -2.09889836      -8.40891822      -3.29234613
H       -1.85388238     -10.63212428      -4.35916572
H       -2.87919602     -11.04859956      -6.58751996
H       -4.15366736      -9.24184456      -7.70579056
H       -4.79239863      -3.74052077      -6.68817655
H       -6.06325232      -2.37724365      -8.07493791
H       -7.47850454      -2.19110748     -10.06872832
H       -7.91840861      -6.47403658     -10.15080855
H       -6.52697758      -6.66379582      -8.15260783
C       -1.79112562       1.79112562       1.79112562
C       -1.46525441       3.12985384       1.97983331
C       -2.25810126       3.92888432       2.81198599
C       -3.39725243       3.41416049       3.44125385
C       -3.69701331       2.05532341       3.24352101
C       -2.90530337       1.24734379       2.42085980
N       -4.14326882       4.12923836       4.39302581
C       -4.13201910       5.50617485       4.74740895
N       -3.64582376       6.44491605       3.90586971
C       -3.64636276       7.71786760       4.34418629
C       -3.16629223       8.72601854       3.51419905
C       -3.12917678      10.05713290       3.93513051
C       -3.57740555      10.38703450       5.20672737
C       -4.07069353       9.38479756       6.04341391
C       -4.11854841       8.05801567       5.63150575
N       -4.60793815       7.12983906       6.47256436
C       -4.60854996       5.84931829       6.04405966
N       -5.08207214       4.78703607       6.86964584
C       -5.68592011       4.82128375       8.14194108
C       -5.76734686       3.62317531       8.87278370
C       -6.41497524       3.56853454      10.11104790
C       -7.01148711       4.71463909      10.62468972
Br      -7.88485266       4.65149738      12.29879831
C       -6.97914928       5.90308555       9.90300819
C       -6.33461535       5.94683078       8.66092443
H       -0.59026535       3.56315822       1.50307862
H       -1.95791215       4.96161609       2.96559360
H       -4.54669166       1.60249588       3.74917036
H       -3.15816620       0.19823728       2.29484019
H       -5.07014184       3.74798167       4.56153912
H       -2.81345203       8.46702352       2.51968717
H       -2.74710305      10.82771947       3.27034986
H       -3.54616730      11.41761372       5.55153451
H       -4.42081354       9.64041821       7.04007072
H       -4.42331317       4.01532175       6.78246104
H       -5.32259084       2.71119211       8.48165092
H       -6.45131796       2.63001602      10.65700635
H       -7.45584796       6.80102221      10.28638356
H       -6.35156785       6.88232005       8.10949333
C        1.79112562      -1.79112562       1.79112562
C        2.83499851      -1.22503280       2.51491025
C        3.66031345      -2.03929386       3.29936425
C        3.43955597      -3.41794239       3.39516841
C        2.38566241      -3.96614382       2.64405151
C        1.56158495      -3.16131880       1.85060321
N        4.31776934      -4.29686691       4.05089674
C        5.40231951      -4.04740710       4.93587629
N        5.50595322      -2.88084127       5.60981504
C        6.58605410      -2.72426289       6.39809966
C        6.73753735      -1.54625654       7.12271593
C        7.85198212      -1.33261820       7.93683987
C        8.83248927      -2.31090188       8.02777626
C        8.68509426      -3.50063820       7.31317254
C        7.57631048      -3.72609833       6.50566103
N        7.47757684      -4.89124362       5.84152111
C        6.39976662      -5.05700577       5.04515552
N        6.21492289      -6.24538593       4.27844523
C        6.96842221      -7.43521547       4.24550727
C        6.76207241      -8.32463799       3.17659547
C        7.42323906      -9.55544189       3.11587673
C        8.28691942      -9.92185992       4.14203657
Br       9.18793336     -11.58073282       4.06648218
C        8.47807698      -9.07702077       5.23014527
C        7.80659703      -7.84978567       5.28598785
H        3.03202194      -0.15754327       2.46693699
H        4.48750999      -1.57165313       3.82595872
H        2.20646942      -5.03875499       2.65313349
H        0.76037709      -3.61614717       1.27471941
H        3.90904671      -5.20136315       4.26925276
H        5.97085129      -0.77979533       7.04951609
H        7.95050231      -0.40300521       8.49166486
H        9.70998808      -2.15494746       8.65037999
H        9.45223210      -4.26749642       7.38157396
H        5.90728527      -5.96471494       3.34909575
H        6.07786663      -8.06545453       2.37211272
H        7.25119006     -10.21623507       2.27091521
H        9.13772369      -9.35958223       6.04594782
H        7.95531300      -7.22574602       6.16232221
C       -0.00445707       0.01189536      -1.78238275
H       -0.66409135       0.67374010      -2.43557963
H        0.65740317      -0.63156657      -2.45157240
C       -0.90989263      -0.90692880      -0.91072765
C        0.90977584       0.90977584      -0.90977584
C       -0.00465871       1.77757030       0.00794375
H       -0.66225468       2.44313916      -0.64384735
H        0.64322798       2.43503045       0.67728295
C       -1.78241447       0.00034974      -0.00472694
H       -2.45427497      -0.65498947       0.64260836
H       -2.43311707       0.67328779      -0.65473579
C       -0.91132561       0.90220522       0.91563759
C       -0.01476271      -0.02253852       1.78660255
H       -0.67934791      -0.69751639       2.42135241
H        0.63392994       0.61504881       2.47327442
C        0.01484550      -1.77751727      -0.01636693
H        0.67870853      -2.42144646      -0.68295456
H       -0.62264859      -2.45592969       0.64226336
C        1.78714474       0.01002794       0.00389507
H        2.44202412       0.67113390       0.66197326
H        2.45385902      -0.65136977      -0.64189061
C        0.91606151      -0.90478549       0.90901405
