157
Properties=species:S:1:pos:R:3 pbc="F F F"
C        0.00000000       0.00000000       0.00000000
C        0.88122159       0.88122159      -0.88122159
C        2.19856031       0.51356630      -1.13310288
C        3.01382598       1.33812835      -1.91730517
C        2.52095607       2.51997084      -2.48202779
C        1.19007601       2.87434534      -2.20172431
C        0.37099610       2.06095114      -1.41184765
N        3.33037267       3.45027656      -3.15517168
C        4.66176802       3.35006288      -3.64405993
N        5.23498643       2.14982413      -3.88208689
C        6.51097466       2.15629525      -4.31143466
C        7.14662222       0.94854481      -4.58163072
C        8.47546244       0.90698687      -5.00927881
C        9.18206818       2.09110167      -5.16828549
C        8.55056971       3.30862181      -4.91000141
C        7.22625967       3.36130540      -4.49079270
N        6.66091376       4.55947959      -4.26023615
C        5.38242313       4.56405727      -3.82573544
N        4.70061006       5.78082035      -3.52761158
C        5.11063373       7.11874120      -3.69005794
C        4.38486929       8.12288506      -3.02583945
C        4.69165415       9.47655308      -3.19663838
C        5.72041804       9.84384171      -4.05684410
Br       6.14497055      11.66991078      -4.29055495
C        6.42777914       8.87171068      -4.75604113
C        6.10914885       7.51928148      -4.58422816
H        2.61234888      -0.39954661      -0.71398786
H        4.04764512       1.04006341      -2.06770123
H        0.77955846       3.80667563      -2.58241173
H       -0.65108580       2.36660617      -1.20601123
H        2.81148955       4.10829836      -3.73016264
H        6.59381132       0.02173961      -4.45489971
H        8.95243730      -0.04865305      -5.21167606
H       10.21986012       2.07395334      -5.49179000
H        9.10222546       4.23704204      -5.03232290
H        4.19495191       5.64179821      -2.65463377
H        3.56529976       7.85865777      -2.36176428
H        4.11948036      10.22854489      -2.66060300
H        7.22277501       9.14731603      -5.44345063
H        6.66097393       6.78675160      -5.16594362
C       -0.88122159      -0.88122159      -0.88122159
C       -0.40809076      -2.11089609      -1.32624264
C       -1.20641181      -2.90435200      -2.15849568
C       -2.49209614      -2.49778848      -2.53307007
C       -2.94103806      -1.24550654      -2.07960106
C       -2.14659348      -0.44217628      -1.25502513
N       -3.27552041      -3.18512704      -3.47517346
C       -3.13123958      -4.47989672      -4.04475453
N       -2.39084058      -5.43530319      -3.44075368
C       -2.28597003      -6.61875167      -4.07398288
C       -1.54382110      -7.64137607      -3.49160057
C       -1.39131392      -8.87800270      -4.12241150
C       -1.98847968      -9.09677565      -5.35620002
C       -2.74380614      -8.08113268      -5.94425410
C       -2.90766213      -6.84922172      -5.32147391
N       -3.64964489      -5.90471999      -5.92626461
C       -3.75826635      -4.71270360      -5.30124589
N       -4.50079064      -3.63673495      -5.87151640
C       -5.29101502      -3.59154993      -7.03686792
C       -5.65389650      -2.33281108      -7.54688621
C       -6.49371244      -2.21251644      -8.65861673
C       -7.00090378      -3.35755811      -9.26264195
Br      -8.13267002      -3.20505253     -10.76771374
C       -6.68880386      -4.61349294      -8.75323415
C       -5.85290306      -4.72416653      -7.63558889
H        0.58363537      -2.45934661      -1.05107889
H       -0.79502777      -3.84398788      -2.51639411
H       -3.91538157      -0.86990758      -2.38335667
H       -2.51843518       0.52489567      -0.92799208
H       -4.26112027      -2.93850490      -3.45032538
H       -1.07468521      -7.46894931      -2.52681612
H       -0.80437257      -9.66141516      -3.64967258
H       -1.87100478     -10.05118285      -5.86341583
H       -3.21109565      -8.24952742      -6.91096733
H       -3.94968204      -2.78857808      -5.75312376
H       -5.28236531      -1.42405772      -7.07929877
H       -6.74688049      -1.22575369      -9.03599408
H       -7.09224282      -5.51473556      -9.20656329
H       -5.65135381      -5.71730720      -7.24500815
C       -0.88122159       0.88122159       0.88122159
C       -0.54928877       2.21718436       1.07875636
C       -1.34231172       3.01600700       1.91094078
C       -2.48749279       2.50402351       2.53143839
C       -2.79337433       1.14786146       2.32490988
C       -2.00158594       0.34004582       1.50216312
N       -3.23476551       3.21801516       3.48304025
C       -3.21812346       4.59298090       3.84478648
N       -2.72251215       5.53355954       3.01082576
C       -2.71865370       6.80416241       3.45588847
C       -2.22886166       7.81412034       2.63381573
C       -2.18695019       9.14277624       3.06200169
C       -2.64017744       9.46833096       4.33294694
C       -3.14319089       8.46432166       5.16168037
C       -3.19586654       7.14000748       4.74248374
N       -3.69461378       6.21001263       5.57600308
C       -3.69971513       4.93179502       5.14070569
N       -4.18322161       3.86769580       5.95812457
C       -4.79362949       3.89842777       7.22737561
C       -4.88526595       2.69692409       7.95140376
C       -5.53974187       2.63918245       9.18592128
C       -6.13290984       3.78570941       9.70248459
Br      -7.01547652       3.71836331      11.37159646
C       -6.09046064       4.97776371       8.98730660
C       -5.43911634       5.02464674       7.74889540
H        0.33049735       2.64834798       0.60893949
H       -1.03749055       4.04630375       2.07161546
H       -3.64810706       0.69688813       2.82365063
H       -2.25931521      -0.70702235       1.36923874
H       -4.16452192       2.84080192       3.64462672
H       -1.87211740       7.55851292       1.63982032
H       -1.79728485       9.91482414       2.40335133
H       -2.60532651      10.49689357       4.68338338
H       -3.49724426       8.71652904       6.15781711
H       -3.52809535       3.09296477       5.87032377
H       -4.44326331       1.78467069       7.55778780
H       -5.58394204       1.69799876       9.72668746
H       -6.56443805       5.87618162       9.37292200
H       -5.44819685       5.96311325       7.20235906
C        0.88122159      -0.88122159       0.88122159
C        1.89196038      -0.30798078       1.64528832
C        2.71801031      -1.12120570       2.43004349
C        2.53020514      -2.50691890       2.48583066
C        1.50967569      -3.06183136       1.69463861
C        0.68532727      -2.25777606       0.90069156
N        3.41397521      -3.38016293       3.14168278
C        4.46943625      -3.12645645       4.05999813
N        4.52644460      -1.97525827       4.76519458
C        5.58223757      -1.81201629       5.58445072
C        5.68551138      -0.64948751       6.34179886
C        6.77352641      -0.42902658       7.18917513
C        7.77612180      -1.38460094       7.28073260
C        7.67698384      -2.55900609       6.53320300
C        6.59476339      -2.79130918       5.69228519
N        6.54237180      -3.94121590       4.99704179
C        5.48930367      -4.11337248       4.16953969
N        5.35400332      -5.28602430       3.36901436
C        6.13821973      -6.45549862       3.32571452
C        5.98131763      -7.32220310       2.23007307
C        6.67499775      -8.53421502       2.15563284
C        7.52193824      -8.90509738       3.19406822
Br       8.46661103     -10.53855655       3.10026871
C        7.66431810      -8.08381622       4.30739664
C        6.96054373      -6.87550308       4.37661167
H        2.06279977       0.76495935       1.62894970
H        3.51963287      -0.64671405       2.98906284
H        1.35775432      -4.13845310       1.67243840
H       -0.08942324      -2.71755817       0.29339666
H        3.02316852      -4.29983334       3.32694870
H        4.90156739       0.09926916       6.26815240
H        6.83443912       0.48828313       7.76930432
H        8.63358193      -1.22279628       7.92922524
H        8.46150891      -3.30802576       6.60205574
H        5.06253108      -4.98946387       2.43938895
H        5.31095684      -7.05967868       1.41508628
H        6.54096269      -9.17729911       1.29036646
H        8.31045048      -8.37060414       5.13248705
H        7.07141792      -6.27053095       5.27172030
