141
Properties=species:S:1:pos:R:3 pbc="F F F"
C        0.00000000       0.00000000       0.00000000
C        0.88117211       0.88117211      -0.88117211
C        2.07403163       0.37887001      -1.39125231
C        2.87214929       1.18318148      -2.21274477
C        2.50259333       2.49754384      -2.52159836
C        1.29586155       2.98089883      -1.99025140
C        0.48657312       2.18139449      -1.17665927
N        3.23255090       3.31995218      -3.38398863
C        4.17796277       3.05910703      -4.36880715
N        4.67027791       4.14790026      -4.98406880
C        5.53904033       3.93722948      -5.99104115
C        5.93572930       2.69141385      -6.39912451
F        6.76786741       2.55527515      -7.43906377
C        5.40070538       1.61897859      -5.70914585
N        5.67598173       0.28263019      -6.03364334
C        6.87197407      -0.32541252      -6.45428344
C        8.13659234       0.23808783      -6.24376197
C        9.29369762      -0.40411430      -6.69479510
C        9.19372943      -1.62113713      -7.36246856
C        7.94837421      -2.20617943      -7.57237592
C        6.79530275      -1.56111079      -7.11318454
N        4.51575240       1.80220669      -4.70699795
H        2.39414154      -0.63496233      -1.16405390
H        3.80147764       0.76601348      -2.59205312
H        0.96150670       3.98896182      -2.22469724
H       -0.44665709       2.57995616      -0.79171517
H        3.02918206       4.30843127      -3.36420453
H        5.91245428       4.82612145      -6.48931503
H        5.12501324      -0.31918543      -5.42756260
H        8.24382894       1.17862088      -5.71258731
H       10.26253876       0.05554012      -6.51999449
H        7.85994938      -3.15424683      -8.09495481
H        5.82546744      -2.02036448      -7.29689053
C       10.38393330      -2.27723872      -7.83843646
C       11.38072905      -2.82672379      -8.23705957
Br      12.99246347      -3.71519469      -8.88159943
C       -0.88117211      -0.88117211      -0.88117211
C       -2.22318169      -0.56106648      -1.05990578
C       -3.02515409      -1.36110297      -1.88181847
C       -2.50747080      -2.49444984      -2.51981489
C       -1.15090806      -2.79707867      -2.31902506
C       -0.33902153      -1.99794786      -1.50765749
N       -3.24935299      -3.29046634      -3.39667238
C       -4.41157882      -3.06847423      -4.12582391
N       -4.82669486      -4.11343462      -4.86211749
C       -5.91116803      -3.91973689      -5.63640603
C       -6.59417700      -2.73413127      -5.69795939
F       -7.63747551      -2.59872826      -6.52600257
C       -6.11939747      -1.70882564      -4.90060671
N       -6.68362663      -0.42497961      -4.88364902
C       -8.02808219      -0.01925686      -4.95350594
C       -9.10306133      -0.86428792      -4.65109289
C      -10.42241092      -0.41225120      -4.74971631
C      -10.67728667       0.89517628      -5.15295047
C       -9.62443564       1.75676865      -5.44690371
C       -8.30675261       1.29971374      -5.34033762
N       -5.02510690      -1.87187405      -4.12797608
H       -2.65854785       0.30766109      -0.57234633
H       -4.07133739      -1.08998373      -1.99822313
H       -0.70436063      -3.65600090      -2.81480422
H        0.70888720      -2.25131714      -1.38258430
H       -2.87864831      -4.20209216      -3.62107739
H       -6.22178753      -4.76753166      -6.23857156
H       -6.12983452       0.16538456      -4.26894045
H       -8.93173433      -1.88362931      -4.31967350
H      -11.23828745      -1.08886861      -4.51091731
H       -9.81335338       2.77790941      -5.76521339
H       -7.49172676       1.97769443      -5.58796115
C      -12.03613857       1.35792209      -5.26691456
C      -13.17417704       1.74547170      -5.36235949
Br     -15.01428900       2.37210665      -5.51668586
C       -0.88117211       0.88117211       0.88117211
C       -0.57079972       2.22722618       1.04612804
C       -1.38982754       3.03709013       1.84115787
C       -2.51365044       2.51544930       2.49263578
C       -2.80169959       1.15282821       2.31248398
C       -1.99499978       0.33779650       1.51183060
N       -3.39588252       3.29315702       3.24745216
C       -3.65946216       4.65715452       3.28926028
N       -4.59410506       5.02642987       4.18171204
C       -4.92873652       6.33044190       4.20813253
C       -4.36579877       7.27219067       3.38827822
F       -4.78070344       8.54416084       3.43734206
C       -3.39962462       6.82198228       2.50722292
N       -2.76140474       7.65449120       1.57635932
C       -2.32164373       8.98480270       1.69439857
C       -2.08381712       9.60981743       2.92480760
C       -1.65911107      10.94052384       2.98474351
C       -1.46760502      11.65910312       1.80835271
C       -1.68596841      11.05501065       0.57359164
C       -2.10501779       9.72153503       0.52082367
N       -3.05768822       5.51785325       2.44941556
H        0.29940060       2.66198037       0.56065334
H       -1.11944439       4.08357930       1.95652056
H       -3.67851996       0.71371807       2.78292773
H       -2.25153443      -0.70879690       1.38227671
H       -4.03050823       2.80734932       3.86396031
H       -5.69815220       6.60849220       4.92124635
H       -2.13977424       7.08770686       1.00590931
H       -2.21077589       9.06767492       3.85658633
H       -1.48340024      11.40222884       3.95244429
H       -1.54205639      11.60844695      -0.34984598
H       -2.28786629       9.26421315      -0.45008596
C       -1.04227031      13.03350063       1.86936010
C       -0.68605250      14.18455853       1.92045380
Br      -0.11007843      16.04572181       2.00306797
C        0.88117211      -0.88117211       0.88117211
C        0.47518191      -2.17435770       1.19461434
C        1.29277546      -2.98631101       1.98898907
C        2.51156841      -2.51720243       2.49296469
C        2.89540617      -1.20680565       2.16479996
C        2.08996252      -0.39133037       1.36333399
N        3.39088341      -3.30643847       3.23916982
C        3.54155278      -4.68051631       3.38380787
N        4.51986126      -5.05774182       4.22464388
C        4.74465964      -6.38012325       4.34252807
C        4.03158749      -7.33175983       3.66292034
F        4.34080882      -8.62782007       3.79357744
C        3.02984603      -6.87037615       2.82860764
N        2.24106477      -7.71604161       2.03514888
C        1.70370668      -8.98566461       2.31147370
C        1.52822048      -9.48049622       3.60972544
C        1.00042856     -10.75678021       3.82716966
C        0.64190482     -11.55109236       2.74206368
C        0.79592014     -11.07559783       1.44305273
C        1.31899087      -9.79544374       1.23294188
N        2.79492571      -5.54984681       2.68018452
H       -0.46940512      -2.56659899       0.82603923
H        0.94709717      -3.99010869       2.22233839
H        3.84554699      -0.81211451       2.51750426
H        2.42060507       0.61264975       1.11705892
H        4.11806222      -2.83087865       3.75287699
H        5.55022158      -6.66673406       5.01093511
H        1.61952455      -7.14452641       1.46933945
H        1.78538868      -8.87588612       4.47376234
H        0.87617040     -11.11737197       4.84453100
H        0.52174735     -11.68915477       0.58975524
H        1.44966772      -9.44012658       0.21219918
C        0.10991358     -12.87057936       2.96463810
C       -0.33562908     -13.97564972       3.15104419
Br      -1.05603388     -15.76245504       3.45244706
