133
Properties=species:S:1:pos:R:3 pbc="F F F"
C        0.00000000       0.00000000       0.00000000
C        0.88117211       0.88117211      -0.88117211
C        2.07403163       0.37887001      -1.39125231
C        2.87214929       1.18318148      -2.21274477
C        2.50259333       2.49754384      -2.52159836
C        1.29586155       2.98089883      -1.99025140
C        0.48657312       2.18139449      -1.17665927
N        3.23255090       3.31995218      -3.38398863
C        4.17796277       3.05910703      -4.36880715
N        4.67027791       4.14790026      -4.98406880
C        5.53904033       3.93722948      -5.99104115
C        5.93572930       2.69141385      -6.39912451
F        6.76786741       2.55527515      -7.43906377
C        5.40070538       1.61897859      -5.70914585
N        5.67598173       0.28263019      -6.03364334
C        6.87197407      -0.32541252      -6.45428344
C        8.13659234       0.23808783      -6.24376197
C        9.29369762      -0.40411430      -6.69479510
C        9.19372943      -1.62113713      -7.36246856
Br      10.75471888      -2.48163479      -7.98671528
C        7.94837421      -2.20617943      -7.57237592
C        6.79530275      -1.56111079      -7.11318454
N        4.51575240       1.80220669      -4.70699795
H        2.39414154      -0.63496233      -1.16405390
H        3.80147764       0.76601348      -2.59205312
H        0.96150670       3.98896182      -2.22469724
H       -0.44665709       2.57995616      -0.79171517
H        3.02918206       4.30843127      -3.36420453
H        5.91245428       4.82612145      -6.48931503
H        5.12501324      -0.31918543      -5.42756260
H        8.24382894       1.17862088      -5.71258731
H       10.26253876       0.05554012      -6.51999449
H        7.85994938      -3.15424683      -8.09495481
H        5.82546744      -2.02036448      -7.29689053
C       -0.88117211      -0.88117211      -0.88117211
C       -1.63810143      -1.89801762      -0.30803490
C       -2.45822824      -2.69392462      -1.11592268
C       -2.52186642      -2.49919355      -2.50067556
C       -1.74452817      -1.46868011      -3.05380351
C       -0.92969437      -0.66153442      -2.25339809
N       -3.36867988      -3.22573980      -3.34207203
C       -4.51748799      -3.97411185      -3.11427712
N       -5.04849575      -4.54439364      -4.20935758
C       -6.19992981      -5.22276251      -4.04461864
C       -6.83224884      -5.35692783      -2.83709098
F       -7.99991204      -6.00682192      -2.75547238
C       -6.21916200      -4.75769669      -1.75197113
N       -6.76283460      -4.77018572      -0.45923494
C       -7.44725997      -5.78551826       0.23193324
C       -7.36532421      -7.14035489      -0.11276304
C       -8.07795786      -8.10808269       0.60166212
C       -8.88125618      -7.72571617       1.67191150
Br      -9.85726245      -9.03000108       2.62746416
C       -8.96859628      -6.38637607       2.04040165
C       -8.24823469      -5.42416298       1.32502118
N       -5.07362356      -4.05847726      -1.89285621
H       -1.60537401      -2.08098973       0.76313064
H       -3.03378363      -3.48449117      -0.64126945
H       -1.78286731      -1.26987222      -4.12242623
H       -0.35055148       0.13503330      -2.70949606
H       -3.18192325      -3.18664414      -4.33325047
H       -6.62497796      -5.66101205      -4.94190075
H       -6.16492734      -4.21867092       0.15020785
H       -6.73443723      -7.46724290      -0.93335701
H       -7.99814874      -9.15232946       0.31240483
H       -9.59509702      -6.07785979       2.87229946
H       -8.33653868      -4.37779064       1.61233584
C       -0.88117211       0.88117211       0.88117211
C       -1.89652315       1.63988587       0.30774493
C       -2.71402225       2.43423102       1.11982226
C       -2.52093992       2.49590056       2.50489505
C       -1.48638497       1.72338799       3.05723882
C       -0.67072435       0.91872129       2.25518123
N       -3.34598435       3.22510404       3.36540332
C       -4.63633229       3.72677558       3.24276908
N       -5.08586670       4.40195958       4.31442069
C       -6.35565917       4.84721493       4.26443686
C       -7.18411406       4.65053001       3.19162359
F       -8.45118915       5.08125933       3.22975786
C       -6.64799491       3.96208542       2.11874949
N       -7.38104882       3.64538050       0.96582594
C       -8.34442146       4.39184765       0.26457589
C       -8.46553494       5.78301683       0.36989038
C       -9.45096288       6.47451592      -0.34110038
C      -10.32638453       5.77597492      -1.16729859
Br     -11.66842730       6.70689709      -2.11552503
C      -10.21717347       4.39450157      -1.29710434
C       -9.22514062       3.70974573      -0.58750985
N       -5.38375364       3.49120115       2.15000225
H       -2.06795875       1.62093343      -0.76565907
H       -3.49546544       3.02068000       0.64339881
H       -1.31781142       1.72562637       4.13172797
H        0.11240241       0.32352947       2.71388718
H       -3.00143764       3.40306574       4.29731448
H       -6.70879744       5.37388866       5.14520465
H       -6.79368527       3.09027779       0.34942735
H       -7.78614832       6.35365395       0.99523487
H       -9.52444926       7.55382579      -0.24020168
H      -10.89754440       3.84023934      -1.93712638
H       -9.15918361       2.62740244      -0.68459256
C        0.88117211      -0.88117211       0.88117211
C        1.86067918      -0.30198396       1.68149081
C        2.65626281      -1.11053896       2.50127377
C        2.49861902      -2.50130756       2.52180895
C        1.50545006      -3.06030303       1.70125870
C        0.69870143      -2.25967781       0.88624764
N        3.22510530      -3.34597521       3.36541119
C        3.93534073      -3.13010323       4.54043300
N        4.52134401      -4.22368860       5.05721436
C        5.16331886      -4.07279969       6.23119241
C        5.24648600      -2.88020114       6.89958052
F        5.86188788      -2.81359617       8.08672228
C        4.63406316      -1.79506324       6.29970342
N        4.59567509      -0.51815080       6.87842937
C        5.57234400       0.18096224       7.60946323
C        6.93800330      -0.12438008       7.55605877
C        7.86568789       0.59589140       8.31458194
C        7.43190403       1.63250977       9.13566659
Br       8.68200238       2.59551383      10.17331081
C        6.08091826       1.96189795       9.19555039
C        5.15898080       1.24103748       8.42943318
N        3.97042734      -1.92284743       5.13168226
H        2.01448994       0.77425277       1.68299592
H        3.41733984      -0.63084218       3.11136222
H        1.33559210      -4.13458574       1.70498791
H       -0.06879290      -2.72089625       0.27291088
H        3.21879052      -4.33224821       3.15077914
H        5.61474515      -4.96936469       6.64378091
H        4.04380295       0.09254349       6.28213095
H        7.30469575      -0.91785410       6.91248729
H        8.91938724       0.33744940       8.25613552
H        5.73238710       2.76728878       9.83555904
H        4.10298097       1.49724338       8.49625590
