162
Properties=species:S:1:pos:R:3 pbc="F F F"
C        1.79107614       1.79107614      -1.79107614
C        2.98393566       1.28877404      -2.30115633
C        3.78205331       2.09308551      -3.12264879
C        3.41249735       3.40744786      -3.43150238
C        2.20576557       3.89080286      -2.90015543
C        1.39647714       3.09129852      -2.08656329
N        4.14245493       4.22985620      -4.29389265
C        5.08786680       3.96901106      -5.27871117
N        5.58018193       5.05780428      -5.89397283
C        6.44894435       4.84713350      -6.90094517
C        6.84563332       3.60131787      -7.30902853
F        7.67777144       3.46517917      -8.34896779
C        6.31060941       2.52888262      -6.61904987
N        6.58588576       1.19253421      -6.94354736
C        7.78187809       0.58449151      -7.36418747
C        9.04649636       1.14799186      -7.15366600
C       10.20360165       0.50578972      -7.60469913
C       10.10363345      -0.71123311      -8.27237259
C        8.85827824      -1.29627541      -8.48227995
C        7.70520678      -0.65120677      -8.02308856
N        5.42565642       2.71211071      -5.61690197
H        3.30404557       0.27494169      -2.07395792
H        4.71138167       1.67591750      -3.50195715
H        1.87141073       4.89886584      -3.13460127
H        0.46324693       3.48986018      -1.70161920
H        3.93908609       5.21833530      -4.27410855
H        6.82235830       5.73602548      -7.39921905
H        6.03491726       0.59071859      -6.33746663
H        9.15373297       2.08852490      -6.62249134
H       11.17244278       0.96544414      -7.42989851
H        8.76985340      -2.24434280      -9.00485883
H        6.73537146      -1.11046046      -8.20679455
C       11.29383733      -1.36733469      -8.74834048
C       12.29063308      -1.91681977      -9.14696360
Br      13.90236750      -2.80529067      -9.79150345
C       -1.79107614      -1.79107614      -1.79107614
C       -2.77863727      -1.21298847      -2.58224028
C       -3.57428733      -2.02140164      -3.40209864
C       -3.40864362      -3.41107599      -3.43172798
C       -2.40742015      -3.96900958      -2.62029412
C       -1.60058719      -3.16843243      -1.80531934
N       -4.13512771      -4.25505530      -4.27602077
C       -4.85350584      -4.03649946      -5.44558373
N       -5.43613658      -5.13047185      -5.96535061
C       -6.08587066      -4.97650177      -7.13465060
C       -6.17993131      -3.78052768      -7.79552074
F       -6.80267825      -3.71060556      -8.97863460
C       -5.57034420      -2.69533271      -7.19286498
N       -5.54281949      -1.41485712      -7.76429072
C       -6.52783605      -0.71723683      -8.48548418
C       -7.89135053      -1.03090690      -8.42589679
C       -8.82766965      -0.31168039      -9.17474046
C       -8.40478311       0.73224925      -9.99223906
C       -7.05612024       1.06991598     -10.05807851
C       -6.12549998       0.35002236      -9.30161094
N       -4.89911990      -2.82603677      -6.02951245
H       -2.93873985      -0.13768389      -2.57652143
H       -4.34172659      -1.54262967      -4.00490005
H       -2.23131310      -5.04223534      -2.63132940
H       -0.82681971      -3.62870797      -1.19919863
H       -4.12178909      -5.24251137      -4.06722947
H       -6.53446783      -5.87327840      -7.54985659
H       -4.99102994      -0.80442442      -7.16764812
H       -8.24961188      -1.83026906      -7.78486827
H       -9.87947929      -0.57664777      -9.11165837
H       -6.71606824       1.88106698     -10.69536817
H       -5.07142611       0.61281617      -9.37309562
C       -9.36684985       1.46550423     -10.77349749
C      -10.17258075       2.07960527     -11.42780142
Br     -11.47537945       3.07255471     -12.48575555
C       -1.79107614       1.79107614       1.79107614
C       -1.21743554       2.80531347       2.55111702
C       -2.02949353       3.62282737       3.34546671
C       -3.41477816       3.43085144       3.40581800
C       -3.96733986       2.39740412       2.63197988
C       -3.16529145       1.58174569       1.82730181
N       -4.27520629       4.25600556       4.13499193
C       -4.15191379       5.54583111       4.63784414
N       -5.22375358       5.99569708       5.31250839
C       -5.17308144       7.26507500       5.75886658
C       -4.09941260       8.09279682       5.56377031
F       -4.13684863       9.35954316       5.99552662
C       -3.02641155       7.55635623       4.87577412
N       -1.87261183       8.28871041       4.56064509
C       -1.17118162       9.25087277       5.30850267
C       -1.27755776       9.37091229       6.69968416
C       -0.56632249      10.35516771       7.39260030
C        0.26119020      11.23048154       6.69548158
C        0.39205941      11.12231586       5.31402632
C       -0.31779074      10.13144875       4.62784908
N       -3.05832656       6.29253524       4.40380731
H       -0.14387327       2.97586752       2.53320439
H       -1.55290795       4.40338198       3.93296639
H       -5.04197092       2.22972697       2.63317995
H       -3.62415362       0.79950000       1.23107269
H       -5.20755332       3.91208944       4.31188718
H       -6.05399393       7.61850937       6.28509952
H       -1.25624022       7.70129565       4.00556660
H       -1.90394622       8.69157228       7.26923071
H       -0.66806193      10.42783693       8.47188657
H        1.03311254      11.80261424       4.76086774
H       -0.21985847      10.06631460       3.54553249
C        0.98444294      12.25254779       7.40673826
C        1.59016710      13.10852828       8.00241572
Br       2.56957185      14.49257633       8.96557581
C        1.79107614      -1.79107614       1.79107614
C        1.20705785      -2.65317705       2.71363112
C        2.01658576      -3.47240901       3.50879284
C        3.41215971      -3.43156927       3.40771861
C        3.97572607      -2.54950511       2.47149268
C        3.17475155      -1.73426589       1.66532152
N        4.26144593      -4.27031911       4.13443874
C        4.06616746      -5.48112202       4.78829955
N        5.15608583      -5.97799133       5.39788188
C        5.02833502      -7.18238486       5.98630316
C        3.86184415      -7.90015282       5.99398276
F        3.81982949      -9.11327219       6.55881673
C        2.77798877      -7.31890423       5.36164889
N        1.52843354      -7.94548907       5.24804472
C        0.82195121      -8.74303214       6.16557371
C        1.07072842      -8.73376092       7.54366487
C        0.34618353      -9.55757143       8.41033554
C       -0.63791451     -10.40040158       7.90228585
C       -0.91101130     -10.41769293       6.53760115
C       -0.18641702      -9.58651352       5.67699206
N        2.88377158      -6.12047973       4.75041780
H        0.12656177      -2.70345542       2.82292798
H        1.53270113      -4.13169174       4.22486345
H        5.05511938      -2.50387054       2.34588791
H        3.64030758      -1.07220552       0.94221321
H        5.23755161      -4.01686702       4.17711131
H        5.92258234      -7.57747542       6.45754506
H        0.91600998      -7.35158332       4.69550918
H        1.82201463      -8.07499234       7.96774224
H        0.56023645      -9.53230338       9.47524561
H       -1.67505779     -11.07412054       6.13130668
H       -0.39780267      -9.61996158       4.60954665
C       -1.37608869     -11.25840421       8.79252760
C       -1.99430957     -11.97698141       9.53810506
Br      -2.99392044     -13.13885997      10.74364075
C       -0.00445707       0.01189536      -1.78238275
H       -0.66409135       0.67374010      -2.43557963
H        0.65740317      -0.63156657      -2.45157240
C       -0.90989263      -0.90692880      -0.91072765
C        0.90977584       0.90977584      -0.90977584
C       -0.00465871       1.77757030       0.00794375
H       -0.66225468       2.44313916      -0.64384735
H        0.64322798       2.43503045       0.67728295
C       -1.78241447       0.00034974      -0.00472694
H       -2.45427497      -0.65498947       0.64260836
H       -2.43311707       0.67328779      -0.65473579
C       -0.91132561       0.90220522       0.91563759
C       -0.01476271      -0.02253852       1.78660255
H       -0.67934791      -0.69751639       2.42135241
H        0.63392994       0.61504881       2.47327442
C        0.01484550      -1.77751727      -0.01636693
H        0.67870853      -2.42144646      -0.68295456
H       -0.62264859      -2.45592969       0.64226336
C        1.78714474       0.01002794       0.00389507
H        2.44202412       0.67113390       0.66197326
H        2.45385902      -0.65136977      -0.64189061
C        0.91606151      -0.90478549       0.90901405
