190
Properties=species:S:1:pos:R:3 pbc="F F F"
C        1.07093149       0.46092988      -5.12883090
O        1.09675400       0.60700817      -3.71550019
C        1.86408968       1.61028997      -3.18792874
C        2.69869130       2.44617695      -3.93645455
C        3.46448907       3.43714133      -3.30824451
C        3.39457709       3.61545970      -1.92243602
C        2.53838065       2.80598396      -1.17108394
C        1.79809729       1.79809729      -1.79809729
C        4.18151691       4.70407739      -1.27051217
N        4.78623062       4.66407520      -0.11869504
N        4.87065772       3.49517166       0.56175198
C        5.11258405       3.44242695       1.91639480
O        5.22923791       2.35450858       2.48168435
C        5.21305614       4.76252379       2.66074575
S        3.55449631       5.38295151       3.10245036
C        4.06421747       6.98496254       3.78918878
C        2.89254731       7.81125297       4.25916722
C        2.28662987       8.69801354       3.34757485
C        1.21344555       9.50704254       3.72924368
C        0.72100437       9.44026658       5.02850265
C        1.29391589       8.55680998       5.94180239
C        2.36908711       7.74354938       5.56176697
Br       3.07035909       6.57145083       6.88315154
C        4.26957158       6.02134510      -2.01557687
H        0.39676267      -0.36771539      -5.36672749
H        2.06146389       0.20476915      -5.51804044
H        0.67561351       1.36118227      -5.61065901
H        2.78121092       2.35162747      -5.01509354
H        4.11126990       4.06119638      -3.92043214
H        2.43006145       2.96373774      -0.09964479
H        4.78919927       2.60618135       0.08004176
H        5.75390374       5.49880950       2.05910666
H        5.78825578       4.59331615       3.57681865
H        4.60199824       7.53892388       3.01049528
H        4.78527747       6.83198312       4.59774393
H        2.65135990       8.76161547       2.32328691
H        0.76357564      10.18760575       3.01106403
H       -0.11271556      10.06940676       5.32920668
H        0.89374843       8.50710825       6.95170447
H        3.38441164       6.18852529      -2.63486122
H        5.16366528       6.01747652      -2.64655759
H        4.34857213       6.84765800      -1.30287265
C       -2.55708037       0.46868821      -4.57230012
O       -2.07910974      -0.01549739      -3.32465524
C       -2.36220124      -1.31181186      -2.98829528
C       -3.16810199      -2.16843833      -3.74478247
C       -3.41958160      -3.47738667      -3.31290664
C       -2.85552686      -3.95274674      -2.12419921
C       -2.02259195      -3.11378102      -1.37907557
C       -1.79809729      -1.79809729      -1.79809729
C       -3.09481917      -5.36351490      -1.69777240
N       -3.27637834      -5.80549210      -0.48713043
N       -3.41215687      -4.93163197       0.53971144
C       -3.19888808      -5.29146303       1.85173490
O       -3.38243373      -4.47422827       2.75459986
C       -2.72526439      -6.70942042       2.11985063
S       -0.91595785      -6.83549713       1.91645752
C       -0.76645374      -8.63170380       2.13816631
C        0.65779478      -9.11305146       2.01062362
C        1.12481205      -9.50148202       0.73960141
C        2.42589105      -9.97816918       0.56103372
C        3.28755482     -10.06957202       1.64924891
C        2.85201674      -9.67368372       2.91274351
C        1.54863844      -9.19418654       3.09467857
Br       1.06065038      -8.67612714       4.85681837
C       -3.10178924      -6.41398143      -2.79072289
H       -2.22115082       1.50475607      -4.67938002
H       -3.65129867       0.47000739      -4.60298221
H       -2.13720778      -0.10562382      -5.40462319
H       -3.62205665      -1.84808240      -4.67779288
H       -4.06045829      -4.11181203      -3.92062811
H       -1.53216020      -3.48155322      -0.47973056
H       -3.71206873      -3.97692648       0.37365635
H       -3.23881692      -7.41386524       1.45907558
H       -2.98894730      -6.96666253       3.15085656
H       -1.37977247      -9.12588665       1.37523227
H       -1.19475454      -8.92581427       3.10105213
H        0.46959801      -9.43167375      -0.12761272
H        2.76436507     -10.27678074      -0.42770169
H        4.29985652     -10.44148893       1.51414790
H        3.53818766      -9.74100203       3.75366216
H       -2.45789295      -6.12455606      -3.62534914
H       -4.12663632      -6.55248485      -3.14857821
H       -2.73863209      -7.36664611      -2.39382457
C        0.20990639       2.01797204       4.85262663
O       -0.23485170       1.62213893       3.56227173
C       -1.42609044       2.12412992       3.11208803
C       -2.28357720       2.92823845       3.86950715
C       -3.49511969       3.38263920       3.33211602
C       -3.85909161       3.05063431       2.02274689
C       -2.99276959       2.27468953       1.24798942
C       -1.79809729       1.79809729       1.79809729
C       -5.13158066       3.57799718       1.44652864
N       -5.95667329       2.96142947       0.65089810
N       -5.77954799       1.64573220       0.37879720
C       -6.32887515       1.03769486      -0.72795380
O       -6.18030602      -0.17175998      -0.90648389
C       -7.09764707       1.91648957      -1.69930246
S       -5.95997328       2.73989663      -2.86487245
C       -7.18274729       3.78499857      -3.70775462
C       -6.56280002       4.65502739      -4.77319434
C       -6.11044343       5.93958352      -4.41295839
C       -5.54908412       6.80101924      -5.35885894
C       -5.42319488       6.39203012      -6.68245670
C       -5.84774312       5.11839030      -7.05720994
C       -6.40974614       4.25205887      -6.11093548
Br      -6.94904981       2.53729079      -6.72768223
C       -5.50040827       5.00499440       1.80109088
H        1.17834541       1.54115441       5.03296576
H       -0.47892757       1.67442588       5.63092004
H        0.35737874       3.10175984       4.90307370
H       -2.04163558       3.21883616       4.88746018
H       -4.14255422       3.99641450       3.95392971
H       -3.23303613       2.04988449       0.21052336
H       -5.25460908       1.05033100       1.01039877
H       -7.69450681       2.65416918      -1.15506941
H       -7.78751134       1.27891053      -2.26166859
H       -7.66374635       4.42578246      -2.95910197
H       -7.98080412       3.16345093      -4.12473839
H       -6.19274411       6.27791594      -3.38097159
H       -5.21061070       7.78975520      -5.06024854
H       -4.98842027       7.06027197      -7.42120772
H       -5.73516792       4.80698328      -8.09299900
H       -4.61034719       5.61237502       1.98507594
H       -6.13292965       5.00067648       2.69409326
H       -6.06026002       5.46016648       0.97867627
C       -0.59007038      -2.90799216       4.34277050
O       -0.02960624      -2.20950282       3.23936579
C        1.29116252      -2.42189780       2.94924807
C        2.15439414      -3.20870328       3.71822538
C        3.49964118      -3.35524456       3.35498918
C        3.99692620      -2.72780552       2.20774110
C        3.13321574      -1.96640683       1.41582598
C        1.79809729      -1.79809729       1.79809729
C        5.42120612      -2.92803578       1.80686457
N        6.23001339      -2.04910147       1.28988601
N        5.85224933      -0.75068283       1.20114523
C        6.44474984       0.13522558       0.32909194
O        6.09995646       1.31749212       0.31959781
C        7.51010355      -0.41051622      -0.60578559
S        6.74835305      -1.16788847      -2.08124405
C        8.26479289      -1.82718093      -2.83198259
C        7.99769611      -2.56666027      -4.11972332
C        7.74561315      -3.95134620      -4.05989079
C        7.51471937      -4.69586003      -5.21933499
C        7.52498907      -4.06874947      -6.46097025
C        7.75449350      -2.69629808      -6.54186810
C        7.98502436      -1.94700903      -5.38116386
Br       8.28050923      -0.08306775      -5.60491861
C        5.99275156      -4.31955070       1.99419129
H       -1.64741297      -2.63356714       4.40962059
H       -0.11098398      -2.61337399       5.28188347
H       -0.53565779      -3.99113150       4.19198109
H        1.81369284      -3.72147572       4.61276337
H        4.14475925      -3.96520899       3.98293019
H        3.48784950      -1.51395787       0.49163661
H        5.13069693      -0.37655691       1.80808503
H        8.14197911      -1.13386404      -0.08223657
H        8.14692815       0.42316117      -0.91901371
H        8.73364888      -2.51371873      -2.11694077
H        8.98645816      -1.01943507      -2.98637656
H        7.72592877      -4.46165374      -3.09789405
H        7.32671737      -5.76416956      -5.15076957
H        7.34733555      -4.64523754      -7.36508857
H        7.75054440      -2.21615884      -7.51755104
H        5.21616933      -5.08400863       1.90762018
H        6.46335571      -4.38430570       2.98003798
H        6.75180679      -4.51611204       1.23118395
C       -0.00445707       0.01189536      -1.78238275
H       -0.66409135       0.67374010      -2.43557963
H        0.65740317      -0.63156657      -2.45157240
C       -0.90989263      -0.90692880      -0.91072765
C        0.90977584       0.90977584      -0.90977584
C       -0.00465871       1.77757030       0.00794375
H       -0.66225468       2.44313916      -0.64384735
H        0.64322798       2.43503045       0.67728295
C       -1.78241447       0.00034974      -0.00472694
H       -2.45427497      -0.65498947       0.64260836
H       -2.43311707       0.67328779      -0.65473579
C       -0.91132561       0.90220522       0.91563759
C       -0.01476271      -0.02253852       1.78660255
H       -0.67934791      -0.69751639       2.42135241
H        0.63392994       0.61504881       2.47327442
C        0.01484550      -1.77751727      -0.01636693
H        0.67870853      -2.42144646      -0.68295456
H       -0.62264859      -2.45592969       0.64226336
C        1.78714474       0.01002794       0.00389507
H        2.44202412       0.67113390       0.66197326
H        2.45385902      -0.65136977      -0.64189061
C        0.91606151      -0.90478549       0.90901405
