198
Properties=species:S:1:pos:R:3 pbc="F F F"
C        1.07093149       0.46092988      -5.12883090
O        1.09675400       0.60700817      -3.71550019
C        1.86408968       1.61028997      -3.18792874
C        2.69869130       2.44617695      -3.93645455
C        3.46448907       3.43714133      -3.30824451
C        3.39457709       3.61545970      -1.92243602
C        2.53838065       2.80598396      -1.17108394
C        1.79809729       1.79809729      -1.79809729
C        4.18151691       4.70407739      -1.27051217
N        4.78623062       4.66407520      -0.11869504
N        4.87065772       3.49517166       0.56175198
C        5.11258405       3.44242695       1.91639480
O        5.22923791       2.35450858       2.48168435
C        5.21305614       4.76252379       2.66074575
S        3.55449631       5.38295151       3.10245036
C        4.06421747       6.98496254       3.78918878
C        2.89254731       7.81125297       4.25916722
C        2.28662987       8.69801354       3.34757485
C        1.21344555       9.50704254       3.72924368
C        0.72100437       9.44026658       5.02850265
C        1.29391589       8.55680998       5.94180239
C        2.36908711       7.74354938       5.56176697
C        4.26957158       6.02134510      -2.01557687
H        0.39676267      -0.36771539      -5.36672749
H        2.06146389       0.20476915      -5.51804044
H        0.67561351       1.36118227      -5.61065901
H        2.78121092       2.35162747      -5.01509354
H        4.11126990       4.06119638      -3.92043214
H        2.43006145       2.96373774      -0.09964479
H        4.78919927       2.60618135       0.08004176
H        5.75390374       5.49880950       2.05910666
H        5.78825578       4.59331615       3.57681865
H        4.60199824       7.53892388       3.01049528
H        4.78527747       6.83198312       4.59774393
H        2.65135990       8.76161547       2.32328691
H        0.76357564      10.18760575       3.01106403
H       -0.11271556      10.06940676       5.32920668
H        0.89374843       8.50710825       6.95170447
H        3.38441164       6.18852529      -2.63486122
H        5.16366528       6.01747652      -2.64655759
H        4.34857213       6.84765800      -1.30287265
C        2.90045569       6.85542556       6.56300796
C        3.34547688       6.11162186       7.40154728
Br       4.06503850       4.90895418       8.75739445
C       -4.85431388       0.20775462      -2.01413301
O       -3.56332227      -0.23632437      -1.61961572
C       -3.11261663      -1.42684035      -2.12285141
C       -3.86999530      -2.28429166      -2.92703583
C       -3.33203078      -3.49508130      -3.38276284
C       -2.02213462      -3.85831135      -3.05202685
C       -1.24744566      -2.99199027      -2.27601261
C       -1.79809729      -1.79809729      -1.79809729
C       -1.44535214      -5.12996274      -3.58079159
N       -0.64862883      -5.95491870      -2.96545333
N       -0.37566421      -5.77858446      -1.64982872
C        0.73196387      -6.32753261      -1.04304746
O        0.91129877      -6.17974497       0.16638406
C        1.70322805      -7.09490099      -1.92316124
S        2.86731026      -5.95571941      -2.74658832
C        3.71032603      -7.17706100      -3.79325627
C        4.77463514      -6.55564626      -4.66362195
C        4.41308196      -6.10258944      -5.94756108
C        5.35790290      -5.53985982      -6.80928748
C        6.68171474      -5.41327657      -6.40120647
C        7.05775584      -5.83850576      -5.12817356
C        6.11256520      -6.40188308      -4.26155165
C       -1.80071717      -5.49797737      -5.00779902
H       -5.03502532       1.17569480      -1.53644425
H       -5.63182403      -0.48192983      -1.67051963
H       -4.90569492       0.35601019      -3.09777007
H       -4.88835162      -2.04290215      -3.21667816
H       -3.95381895      -4.14252190      -3.99655757
H       -0.20962751      -3.23164003      -2.05217645
H       -1.00721166      -5.25457637      -1.05355082
H        1.15888814      -7.69161405      -2.66088067
H        2.26660052      -7.78482156      -1.28653224
H        2.96155232      -7.65814199      -4.43383717
H        4.12838608      -7.97527222      -3.17263053
H        3.38090147      -6.18541651      -6.28517342
H        5.05828599      -5.20086361      -7.79753973
H        7.41962879      -4.97743518      -7.06967812
H        8.09369520      -5.72538090      -4.81746651
H       -1.98583763      -4.60759594      -5.61436458
H       -2.69323626      -6.13117912      -5.00328401
H       -0.97822394      -6.05685982      -5.46401902
C        6.58118245      -6.81115506      -2.96290069
C        6.97364941      -7.15392035      -1.87528051
Br       7.60823527      -7.70814284      -0.11669067
C       -2.76671507      -0.54580255       4.43977976
O       -2.21658941      -0.03182675       3.23449971
C       -2.43184251       1.28804644       2.94241943
C       -3.23356248       2.14660474       3.70115557
C       -3.41267007       3.48164745       3.31555740
C       -2.77948424       3.98073317       2.17225541
C       -1.95053968       3.13818755       1.42672130
C       -1.79809729       1.79809729       1.79809729
C       -2.94249492       5.41667549       1.79693606
N       -3.05405075       5.91512214       0.59982797
N       -3.18154392       5.09056226      -0.46802879
C       -2.89799773       5.49431833      -1.75369986
O       -3.07614498       4.72325230      -2.69733513
C       -2.35579287       6.90056972      -1.94152841
S       -0.55316237       6.94097160      -1.65913650
C       -0.32102379       8.73673282      -1.79776538
C        1.11498124       9.15130326      -1.59168896
C        1.54287607       9.46717514      -0.28723051
C        2.85356069       9.88025814      -0.03545304
C        3.76385221       9.97925988      -1.08263938
C        3.36675573       9.65429341      -2.37861420
C        2.05380451       9.23864101      -2.63396698
C       -2.95309850       6.42091629       2.93247877
H       -2.47830009      -1.59876152       4.51623620
H       -3.86038461      -0.50172283       4.42561170
H       -2.35957870      -0.02442633       5.31230243
H       -3.73960125       1.80801338       4.60031730
H       -4.05239699       4.11743972       3.92306171
H       -1.40758405       3.52118072       0.56467921
H       -3.52704761       4.14352080      -0.35522955
H       -2.86781694       7.59866156      -1.27287191
H       -2.56454112       7.21076022      -2.97054806
H       -0.94559247       9.22500625      -1.04017187
H       -0.69549921       9.08796036      -2.76394291
H        0.84897891       9.38996471       0.54870266
H        3.16149930      10.12349032       0.97812633
H        4.78383314      10.30184465      -0.89052699
H        4.09033282       9.72662323      -3.18713821
H       -2.35774425       6.07041819       3.77963570
H       -3.98574967       6.58823943       3.25371029
H       -2.53470159       7.37266280       2.59173839
C        1.72556665       8.91714032      -3.99870037
C        1.45066745       8.64788349      -5.14166458
Br       1.00617869       8.21251797      -6.98974104
C        5.14294387      -0.93579966       0.58194874
O        3.72737872      -1.00669417       0.68518947
C        3.19411303      -1.81837754       1.64981782
C        3.94267554      -2.65549951       2.48314774
C        3.30916705      -3.46818265       3.43252521
C        1.91732806      -3.44358840       3.57155635
C        1.16453883      -2.58575588       2.76515383
C        1.79809729      -1.79809729       1.79809729
C        1.25793783      -4.28097906       4.61718959
N        0.12621788      -4.91720182       4.52558116
N       -0.51743112      -4.98646907       3.33503944
C       -1.86220815      -5.26568591       3.23513844
O       -2.39217680      -5.36623628       2.12800266
C       -2.64100558      -5.42673608       4.52910367
S       -3.14947262      -3.80075831       5.18371178
C       -3.86668418      -4.37741664       6.74925877
C       -4.39487951      -3.24483952       7.59467306
C       -3.52763230      -2.63948527       8.52521559
C       -3.96417148      -1.60225041       9.35316548
C       -5.27501397      -1.14571536       9.26206690
C       -6.14504244      -1.71823932       8.33572660
C       -5.70995425      -2.75738082       7.50344295
C        1.96699243      -4.38658792       5.95291321
H        5.38451346      -0.23074240      -0.21948109
H        5.56861986      -1.90665296       0.30900066
H        5.58665966      -0.55365820       1.50713693
H        5.02556700      -2.70403594       2.41832899
H        3.92203967      -4.11528623       4.05557252
H        0.08625232      -2.51311115       2.89408051
H       -0.01291661      -4.86479142       2.46346406
H       -2.04505447      -5.97163400       5.26702705
H       -3.53433382      -6.02283522       4.31625188
H       -3.08866375      -4.90873063       7.31035996
H       -4.64872358      -5.11663251       6.55160774
H       -2.49522594      -2.97625376       8.60866064
H       -3.27959138      -1.15226457      10.06744417
H       -5.61835954      -0.34006322       9.90578084
H       -7.16452840      -1.34606168       8.26761893
H        2.55464091      -3.48929245       6.16386478
H        2.62409334      -5.26160477       5.94200128
H        1.23341635      -4.51060982       6.75507660
C       -6.66894760      -3.29079483       6.57102607
C       -7.47210453      -3.73752907       5.79012692
Br      -8.77074136      -4.45986054       4.52747906
C       -0.00445707       0.01189536      -1.78238275
H       -0.66409135       0.67374010      -2.43557963
H        0.65740317      -0.63156657      -2.45157240
C       -0.90989263      -0.90692880      -0.91072765
C        0.90977584       0.90977584      -0.90977584
C       -0.00465871       1.77757030       0.00794375
H       -0.66225468       2.44313916      -0.64384735
H        0.64322798       2.43503045       0.67728295
C       -1.78241447       0.00034974      -0.00472694
H       -2.45427497      -0.65498947       0.64260836
H       -2.43311707       0.67328779      -0.65473579
C       -0.91132561       0.90220522       0.91563759
C       -0.01476271      -0.02253852       1.78660255
H       -0.67934791      -0.69751639       2.42135241
H        0.63392994       0.61504881       2.47327442
C        0.01484550      -1.77751727      -0.01636693
H        0.67870853      -2.42144646      -0.68295456
H       -0.62264859      -2.45592969       0.64226336
C        1.78714474       0.01002794       0.00389507
H        2.44202412       0.67113390       0.66197326
H        2.45385902      -0.65136977      -0.64189061
C        0.91606151      -0.90478549       0.90901405
