182
Properties=species:S:1:pos:R:3 pbc="F F F"
C        1.79172075       1.79172075      -1.79172075
C        2.94282537       2.36847211      -1.26034514
C        3.74982888       3.17259486      -2.06744595
C        3.40989965       3.40677118      -3.40937737
C        2.25070806       2.81219966      -3.93050891
C        1.44156772       2.00943562      -3.12262201
C        4.30101444       4.25648100      -4.28452626
S        5.66787805       3.27721823      -4.96465709
C        6.41336120       4.46655130      -6.02767692
N        6.30151859       5.70630394      -5.67471425
C        6.81704075       6.69304935      -6.51550252
C        6.76265443       8.02551992      -6.10008059
C        7.25853195       9.04653777      -6.91464210
C        7.81059234       8.73954111      -8.15823840
C        7.86631709       7.41347933      -8.58276565
C        7.36815778       6.39638912      -7.75661221
C        7.44600525       4.97960447      -8.15712871
O        7.90663850       4.72405108      -9.26924830
N        7.02095754       4.03868286      -7.21088011
C        7.25672728       2.65708256      -7.50857470
C        7.98511968       1.85013881      -6.62011728
C        8.21753969       0.50237292      -6.90813591
C        7.72836081      -0.04456822      -8.09151828
Br       8.02922390      -1.87064775      -8.47527587
C        7.02443882       0.74666385      -8.99631684
C        6.79988329       2.09689460      -8.71037798
H        3.22376273       2.19514134      -0.22520422
H        4.65345749       3.61004061      -1.64714516
H        1.97314034       2.96567368      -4.97130968
H        0.54715335       1.55592049      -3.54153033
H        4.69116845       5.09178315      -3.69221167
H        3.71273719       4.68621593      -5.10359769
H        6.33169821       8.26909646      -5.13143958
H        7.21475468      10.07947841      -6.57697763
H        8.20094759       9.53263930      -8.79141326
H        8.30488512       7.17279040      -9.54920503
H        8.39891157       2.26438218      -5.70351869
H        8.78150767      -0.10593770      -6.20609382
H        6.64835173       0.32725152      -9.92545159
H        6.24970327       2.70073707      -9.42877747
C       -1.79172075      -1.79172075      -1.79172075
C       -2.25961724      -3.00915384      -1.30287154
C       -3.06757063      -3.81382323      -2.10847583
C       -3.41060925      -3.40756100      -3.40787794
C       -2.93656062      -2.17493127      -3.88192474
C       -2.12607088      -1.37049843      -3.07705604
C       -4.30647358      -4.27055249      -4.26499562
S       -6.05420355      -3.97577923      -3.87977059
C       -6.82382869      -4.97700276      -5.10675796
N       -6.16609695      -6.02135319      -5.49508664
C       -6.70117227      -6.81209122      -6.51232914
C       -6.02839705      -7.97956013      -6.88029776
C       -6.52360830      -8.79582707      -7.90027645
C       -7.69861895      -8.44485683      -8.56489608
C       -8.37513080      -7.28035458      -8.20707671
C       -7.87092430      -6.46968013      -7.18055469
C       -8.58116007      -5.25147151      -6.75010685
O       -9.59957410      -4.93583895      -7.36452483
N       -8.05004861      -4.57671442      -5.64375748
C       -8.82286260      -3.49973618      -5.09978577
C       -9.20192451      -3.50546045      -3.74799081
C       -9.95652821      -2.45684484      -3.21467548
C      -10.34295544      -1.39893717      -4.03341827
Br     -11.35081355       0.02700129      -3.31003976
C       -9.99674944      -1.38808964      -5.38258043
C       -9.24873121      -2.44205893      -5.91636575
H       -2.00769244      -3.33798086      -0.29843500
H       -3.43803400      -4.75826617      -1.71434308
H       -3.20028561      -1.83018439      -4.87965370
H       -1.76728248      -0.41836428      -3.45895741
H       -4.05382173      -5.32362887      -4.09771267
H       -4.12173164      -4.05669406      -5.32412510
H       -5.11102207      -8.25600581      -6.36520637
H       -5.99276335      -9.70491035      -8.17353702
H       -8.08764958      -9.08142232      -9.35592825
H       -9.29656192      -7.01080867      -8.71950995
H       -8.93345389      -4.33525006      -3.09810850
H      -10.23762384      -2.47887143      -2.16516851
H      -10.30341482      -0.56958205      -6.02805797
H       -8.98844445      -2.41841825      -6.97235511
C       -1.79172075       1.79172075       1.79172075
C       -2.34675163       1.26797643       2.95691456
C       -3.15087612       2.07511409       3.76387947
C       -3.40676493       3.40941750       3.40986577
C       -2.83388753       3.92304270       2.23648639
C       -2.03113869       3.11507397       1.42741269
C       -4.25627460       4.28509904       4.30064806
S       -3.26849680       4.99537538       5.64588119
C       -4.46187351       6.05266101       6.39305489
N       -5.69827531       5.68243733       6.30182414
C       -6.68916005       6.51713973       6.81929285
C       -8.01671903       6.08402531       6.78751059
C       -9.04178192       6.89181188       7.28611802
C       -8.74389465       8.14628972       7.81818749
C       -7.42284432       8.58844325       7.85127451
C       -6.40158732       7.76898682       7.35058497
C       -4.98923466       8.18858174       7.40492203
O       -4.74224764       9.30976069       7.84792955
N       -4.04164055       7.24902309       6.97985688
C       -2.66111170       7.56741048       7.19386237
C       -1.83345798       6.69887448       7.92304331
C       -0.48667533       7.00711100       8.13426220
C        0.03856901       8.19095509       7.62292479
Br       1.86322061       8.60192477       7.89514786
C       -0.77327428       9.07634793       6.91779730
C       -2.12244769       8.77026127       6.71444692
H       -2.15643138       0.23886883       3.24880808
H       -3.57123257       1.66100044       4.67841025
H       -3.00438459       4.95810708       1.94763203
H       -1.59457953       3.52812056       0.52190408
H       -5.07876370       3.68724945       4.70915012
H       -4.70408888       5.09090582       3.70755611
H       -8.25321173       5.10683923       6.37218329
H      -10.07073314       6.54041371       7.26006387
H       -9.54007449       8.77426897       8.21065669
H       -7.18911277       9.56348980       8.27427798
H       -2.23045082       5.78249096       8.35387067
H        0.13785637       6.32028477       8.69923538
H       -0.37079326      10.00582059       6.52444098
H       -2.74254758       9.47367814       6.16299209
C        1.79172075      -1.79172075       1.79172075
C        1.71024676      -1.68342879       3.17796707
C        2.51485083      -2.49135321       3.98366565
C        3.40701561      -3.41036732       3.40866528
C        3.47119404      -3.51157606       2.01064652
C        2.66801556      -2.70164275       1.20396704
C        4.25594831      -4.29999524       4.28607814
S        3.32923298      -5.76739899       4.81312140
C        4.59176771      -6.65294042       5.66288128
N        5.51907465      -5.94328879       6.22017334
C        6.57828322      -6.59745625       6.84985316
C        7.53980379      -5.83332341       7.51512774
C        8.62216652      -6.44657338       8.15097192
C        8.75229657      -7.83499763       8.12107766
C        7.79985542      -8.60557868       7.45712799
C        6.71635002      -7.98034578       6.82446332
C        5.66990707      -8.76677592       6.14605545
O        5.81200017      -9.98823468       6.09970303
N        4.57648568      -8.04994715       5.64408768
C        3.46834817      -8.80893904       5.14509735
C        2.17843985      -8.61326505       5.66367088
C        1.09567713      -9.35272126       5.17965014
C        1.29871785     -10.29849866       4.17809436
Br      -0.16709429     -11.28866902       3.51227729
C        2.57542416     -10.52344488       3.66855046
C        3.65890960      -9.78851986       4.15972642
H        1.02279534      -0.98068814       3.64062481
H        2.43650906      -2.40811458       5.06601961
H        4.14333664      -4.22638796       1.54039910
H        2.72943351      -2.79246081       0.12270984
H        4.58815728      -3.72757034       5.15943565
H        5.15449837      -4.60871194       3.73934050
H        7.44250104      -4.75015557       7.53957765
H        9.36108973      -5.84024631       8.66987469
H        9.59173839      -8.31402314       8.61923862
H        7.89641556      -9.68941255       7.44105244
H        2.00305197      -7.89890290       6.46485757
H        0.10465131      -9.18443210       5.59258038
H        2.74101119     -11.26664953       2.89339411
H        4.64938288      -9.97808880       3.75174614
C       -0.00445707       0.01189536      -1.78238275
H       -0.66409135       0.67374010      -2.43557963
H        0.65740317      -0.63156657      -2.45157240
C       -0.90989263      -0.90692880      -0.91072765
C        0.90977584       0.90977584      -0.90977584
C       -0.00465871       1.77757030       0.00794375
H       -0.66225468       2.44313916      -0.64384735
H        0.64322798       2.43503045       0.67728295
C       -1.78241447       0.00034974      -0.00472694
H       -2.45427497      -0.65498947       0.64260836
H       -2.43311707       0.67328779      -0.65473579
C       -0.91132561       0.90220522       0.91563759
C       -0.01476271      -0.02253852       1.78660255
H       -0.67934791      -0.69751639       2.42135241
H        0.63392994       0.61504881       2.47327442
C        0.01484550      -1.77751727      -0.01636693
H        0.67870853      -2.42144646      -0.68295456
H       -0.62264859      -2.45592969       0.64226336
C        1.78714474       0.01002794       0.00389507
H        2.44202412       0.67113390       0.66197326
H        2.45385902      -0.65136977      -0.64189061
C        0.91606151      -0.90478549       0.90901405
