146
Properties=species:S:1:pos:R:3 pbc="F F F"
C        1.79179402       1.79179402      -1.79179402
C        2.31581573       1.27808723      -2.97948096
C        3.12664630       2.08041253      -3.78481532
C        3.42238971       3.38561552      -3.37860997
C        2.87931918       3.90820007      -2.19888733
C        2.06338632       3.10393883      -1.40156510
S        4.47244647       4.41402074      -4.38629186
O        4.39255429       3.93838296      -5.75003673
O        4.17217578       5.78958721      -4.04796836
N        6.01261326       4.09902265      -3.75611969
C        6.53340803       2.78169506      -3.87229782
C        6.48171516       1.91134660      -2.78715066
C        6.93186850       0.59862173      -2.93537805
C        7.44589646       0.16251610      -4.16210374
C        7.51548463       1.03572790      -5.25855673
C        8.07177095       0.61926808      -6.59142628
C        7.03533940       2.34624237      -5.09988186
H        2.09701767       0.25803834      -3.28609200
H        3.53225447       1.68077461      -4.71237330
H        3.08019190       4.93429295      -1.89739700
H        1.64168046       3.50822198      -0.48428277
H        6.16885157       4.58989206      -2.87730410
H        6.07710162       2.22986169      -1.83091124
H        6.87399237      -0.08185865      -2.08888684
H        8.10505049       1.46064964      -7.29233207
H        7.44818189      -0.15994044      -7.04039655
H        9.09830234       0.25450911      -6.48191311
H        7.05833469       3.03975547      -5.93942910
C        7.88628292      -1.20572653      -4.24912030
C        8.25510658      -2.35162973      -4.32199666
Br       8.85146324      -4.20445829      -4.43983159
C       -1.79179402      -1.79179402      -1.79179402
C       -2.34128306      -1.26844467      -2.96365618
C       -3.15215718      -2.07085367      -3.76886330
C       -3.42227562      -3.38627527      -3.37806432
C       -2.85373024      -3.91809412      -2.21458223
C       -2.03790482      -3.11355332      -1.41743212
S       -4.47201447      -4.41531593      -4.38542868
O       -4.41981837      -3.91828463      -5.74287097
O       -4.14623116      -5.79107187      -4.07242833
N       -6.00700325      -4.13303134      -3.72772101
C       -6.54903877      -2.82213805      -3.81622410
C       -6.49391716      -1.96735229      -2.71894297
C       -6.96574277      -0.65951667      -2.84060883
C       -7.50467524      -0.21301914      -4.05282190
C       -7.57781630      -1.07076969      -5.16118327
C       -8.16030866      -0.64297239      -6.47918426
C       -7.07588062      -2.37609782      -5.02948519
H       -2.14234490      -0.24075741      -3.25804569
H       -3.57763244      -1.66362976      -4.68414017
H       -3.03473450      -4.95147703      -1.92567032
H       -1.59642158      -3.52502533      -0.51273830
H       -6.14262682      -4.63922795      -2.85419296
H       -6.07021022      -2.29391343      -1.77375090
H       -6.90521896       0.00908849      -1.98489009
H       -8.19164791      -1.47423744      -7.19214685
H       -7.55523704       0.15216169      -6.92556265
H       -9.19038289      -0.29543148      -6.34891018
H       -7.10123261      -3.05730921      -5.87897744
C       -7.96663769       1.14955841      -4.11259741
C       -8.35353123       2.29071711      -4.16265939
Br      -8.97910538       4.13587422      -4.24360538
C       -1.79179402       1.79179402       1.79179402
C       -1.76860817       3.17792201       1.62685374
C       -2.56979591       3.98675328       2.43532497
C       -3.37125641       3.39715311       3.41820568
C       -3.41128433       2.00597384       3.56914842
C       -2.61380461       1.20195970       2.75312594
S       -4.38337850       4.41859175       4.47078882
O       -4.65633521       5.65437839       3.77026037
O       -5.45435523       3.58299482       4.97238131
N       -3.36203490       4.71733367       5.78838703
C       -2.16826586       5.45528655       5.56384850
C       -0.95050532       4.79300579       5.43670131
C        0.20309606       5.52282378       5.14614056
C        0.14053670       6.91327144       4.99778155
C       -1.07955033       7.59250395       5.13771498
C       -1.19575542       9.08496592       5.00174397
C       -2.23540775       6.84054399       5.40551189
H       -1.13342238       3.63553320       0.87219243
H       -2.55407284       5.06710413       2.30422541
H       -4.05928418       1.54233593       4.31026174
H       -2.64306417       0.12113786       2.86998317
H       -3.30747506       3.91496257       6.41361009
H       -0.88515425       3.71373517       5.53898513
H        1.14904127       4.99838469       5.03167713
H       -2.21380805       9.42875054       5.21547360
H       -0.94904707       9.39726300       3.98232792
H       -0.53314242       9.58800933       5.71357280
H       -3.19936703       7.33885713       5.49929510
C        1.36609444       7.60443118       4.69133993
C        2.39249903       8.18327746       4.43469508
Br       4.05210846       9.11922294       4.01972206
C        1.79179402      -1.79179402       1.79179402
C        1.45892063      -3.13450951       1.97995377
C        2.26040540      -3.94153471       2.78993405
C        3.37773010      -3.38668974       3.42219536
C        3.72414554      -2.04604224       3.21621881
C        2.92338857      -1.24597440       2.39952728
S        4.39796718      -4.39976658       4.47502532
O        4.24415448      -5.77688506       4.05993443
O        5.70105597      -3.77136497       4.53731042
N        3.69329094      -4.17572903       5.99873562
C        2.36065716      -4.62722751       6.19951625
C        1.30226795      -3.72421078       6.15373368
C       -0.00684367      -4.19072253       6.28198941
C       -0.25506765      -5.55535403       6.47022991
C        0.80536296      -6.47254485       6.53186145
C        0.59122251      -7.94479920       6.74644359
C        2.11534774      -5.99000155       6.37611433
H        0.58125366      -3.56032243       1.49957192
H        2.00256819      -4.98912253       2.93371166
H        4.61183026      -1.62029460       3.67975698
H        3.19067544      -0.20404023       2.23946953
H        3.95146379      -3.27847156       6.40611238
H        1.47583478      -2.66336758       5.99867219
H       -0.83089613      -3.48284713       6.22906956
H        1.54335108      -8.47946780       6.83521332
H        0.04579776      -8.37962807       5.90321217
H        0.03863735      -8.12097813       7.67510907
H        2.95652540      -6.68152411       6.39946976
C       -1.62886534      -5.97059087       6.58795115
C       -2.77942090      -6.31835172       6.68654269
Br      -4.63977193      -6.88065161       6.84595686
C       -0.00445707       0.01189536      -1.78238275
H       -0.66409135       0.67374010      -2.43557963
H        0.65740317      -0.63156657      -2.45157240
C       -0.90989263      -0.90692880      -0.91072765
C        0.90977584       0.90977584      -0.90977584
C       -0.00465871       1.77757030       0.00794375
H       -0.66225468       2.44313916      -0.64384735
H        0.64322798       2.43503045       0.67728295
C       -1.78241447       0.00034974      -0.00472694
H       -2.45427497      -0.65498947       0.64260836
H       -2.43311707       0.67328779      -0.65473579
C       -0.91132561       0.90220522       0.91563759
C       -0.01476271      -0.02253852       1.78660255
H       -0.67934791      -0.69751639       2.42135241
H        0.63392994       0.61504881       2.47327442
C        0.01484550      -1.77751727      -0.01636693
H        0.67870853      -2.42144646      -0.68295456
H       -0.62264859      -2.45592969       0.64226336
C        1.78714474       0.01002794       0.00389507
H        2.44202412       0.67113390       0.66197326
H        2.45385902      -0.65136977      -0.64189061
C        0.91606151      -0.90478549       0.90901405
