165
Properties=species:S:1:pos:R:3 pbc="F F F"
C        0.00000000       0.00000000       0.00000000
O        6.54697474       6.23759017      -0.14137475
C        5.64884383       5.45168727       0.16312556
N        4.91703308       4.84700643      -0.83987215
N        3.95147045       3.91894495      -0.58832170
C        3.40356763       3.38242573      -1.63369821
C        2.38890284       2.37819324      -1.49014987
C        1.82746729       1.77789551      -0.37899281
C        0.87058345       0.87058345      -0.87058345
C        0.89117703       0.94909928      -2.24145341
C        0.13605424       0.28443660      -3.32195779
O        1.82304379       1.87100971      -2.62806615
C        5.26498773       5.09834496       1.59348050
N        6.44458309       5.18314368       2.50881628
C        6.81772334       3.93384454       3.13578214
C        5.95559673       3.31601852       4.05163241
C        6.31808651       2.11912442       4.67100183
C        7.54537074       1.52778723       4.38114203
C        8.40679089       2.12444228       3.46008483
C        8.04195213       3.31869932       2.83063903
S        6.42256439       6.55521846       3.51727470
O        6.17497978       7.71844066       2.69290249
O        5.55602125       6.27891611       4.64709598
C        8.10344222       6.64986519       4.10630572
H        5.17830286       5.09216935      -1.79027614
H        3.69185464       3.66569890      -2.66161293
H        2.08609821       1.98591158       0.65001393
H        0.70346911       0.28676579      -4.25785596
H       -0.81166503       0.80349861      -3.49461823
H       -0.08283469      -0.75666444      -3.06592519
H        4.84404923       4.08859011       1.63120373
H        4.46503259       5.78005745       1.90490060
H        4.99546211       3.76556896       4.29638128
H        5.64173693       1.65278110       5.38374658
H        7.83034347       0.59928643       4.87047321
H        9.35958357       1.64976506       3.23815888
H        8.33007350       5.76808069       4.70813809
H        8.18435968       7.54079649       4.73350775
H        8.77919492       6.74003328       3.25551944
C        8.95862596       3.87344780       1.86857708
C        9.72634030       4.33804965       1.06285019
Br      10.96766945       5.08927155      -0.23994204
O       -8.20517725      -1.07145459      -3.64930781
C       -7.22291471      -0.71976515      -2.99472567
N       -6.07808838      -1.49110391      -3.03471938
N       -4.93020037      -1.13728780      -2.39124892
C       -3.91527783      -1.92071463      -2.58369911
C       -2.64877510      -1.63591129      -1.97255956
C       -2.21939865      -0.59882571      -1.16613126
C       -0.87058345      -0.87058345      -0.87058345
C       -0.53556299      -2.04199077      -1.50417595
C        0.69324536      -2.85680662      -1.57888736
O       -1.62220984      -2.51541911      -2.18449071
C       -7.17742486       0.52080137      -2.11322869
N       -8.07238976       1.59578536      -2.64230609
C       -7.39434226       2.81235865      -3.03380215
C       -6.75160304       3.60515532      -2.07353512
C       -6.10992636       4.78775811      -2.44404086
C       -6.10400335       5.18959983      -3.77761241
C       -6.72723593       4.40214119      -4.74605361
C       -7.36260788       3.21168079      -4.37908533
S       -9.50562260       1.78799840      -1.74288395
O      -10.11160532       0.48486333      -1.57377597
O       -9.20904790       2.59812642      -0.57691991
C      -10.54520055       2.73673222      -2.83853337
H       -6.11985734      -2.31839067      -3.62250034
H       -3.97819542      -2.82222044      -3.21875060
H       -2.82099219       0.23781453      -0.83881820
H        0.70632661      -3.46710659      -2.48731087
H        0.75529381      -3.52623665      -0.71550898
H        1.58531657      -2.22318849      -1.58855414
H       -6.15183444       0.89767169      -2.04727285
H       -7.46449229       0.22251441      -1.09821155
H       -6.75074003       3.31185218      -1.02576195
H       -5.61924019       5.39636492      -1.68789619
H       -5.61062298       6.11550648      -4.06404019
H       -6.71058528       4.72397253      -5.78457700
H      -10.09711089       3.71701315      -3.00991836
H      -11.51203019       2.86702928      -2.34664750
H      -10.68125078       2.18866312      -3.77112110
C       -7.96449331       2.42618252      -5.42518589
C       -8.46857236       1.76832772      -6.30129512
Br      -9.28362555       0.70463214      -7.71788963
O       -2.99900353       1.53386578       8.39307034
C       -2.49633196       1.07415745       7.36691612
N       -2.75998114       1.68646174       6.15746878
N       -2.19230494       1.27875069       4.98768146
C       -2.47458923       1.99829927       3.94680306
C       -1.91718171       1.67528876       2.66477548
C       -1.04144216       0.68748826       2.25542520
C       -0.87058345       0.87058345       0.87058345
C       -1.63325665       1.95020549       0.49826757
C       -1.89629851       2.63110540      -0.78495529
O       -2.27618098       2.45022100       1.59571767
C       -1.59749837      -0.15408155       7.32643536
N       -0.82410031      -0.30291566       8.59772583
C        0.61244760      -0.21962362       8.44785698
C        1.30737376      -1.20109594       7.72845254
C        2.69486689      -1.13364031       7.59471630
C        3.40146883      -0.08477797       8.17826274
C        2.72052689       0.90711247       8.88456277
C        1.32920908       0.84731020       9.01191130
S       -1.40583191      -1.54833115       9.60300739
O       -2.83613734      -1.38248932       9.74686994
O       -0.87446286      -2.80969998       9.12307851
C       -0.65150580      -1.18160479      11.17710069
H       -3.36355132       2.50252128       6.19467575
H       -3.14004806       2.87818337       4.00093503
H       -0.59610407      -0.06522805       2.89111983
H       -2.20282452       3.66939600      -0.62412967
H       -2.69607713       2.11791611      -1.32754142
H       -1.00235957       2.64001326      -1.41594676
H       -0.90433244      -0.08496223       6.48206540
H       -2.23129157      -1.02821244       7.13711031
H        0.77427423      -2.03190232       7.27082635
H        3.22244348      -1.90477478       7.03798972
H        4.48356917      -0.03756675       8.08029261
H        3.28313418       1.72379546       9.33052846
H        0.43303924      -1.26883285      11.09188820
H       -1.01366646      -1.91918783      11.89716978
H       -0.95032145      -0.18288004      11.49626735
C        0.67786492       1.91350750       9.72785411
C        0.13236418       2.80644773      10.32745621
Br      -0.74966437       4.25025657      11.29696210
O        0.57276204      -7.78311319       4.57006442
C        0.21109721      -6.79240808       3.93390025
N        1.08834922      -5.73722049       3.77834195
N        0.78809323      -4.63466262       3.03598125
C        1.73965664      -3.76204100       2.91799392
C        1.54395093      -2.57094526       2.14234977
C        0.47234727      -2.11235473       1.39965362
C        0.87058345      -0.87058345       0.87058345
C        2.15201903      -0.62868444       1.30102624
C        3.10853204       0.48019976       1.11411634
O        2.57198319      -1.67008235       2.08005412
C       -1.16545348      -6.63182923       3.30347644
N       -1.73533396      -7.95428402       2.89996043
C       -1.97117122      -8.10627384       1.48068314
C       -2.93418616      -7.31947189       0.83469711
C       -3.17644413      -7.47364777      -0.53099454
C       -2.45870264      -8.41527417      -1.26455560
C       -1.48661103      -9.19476923      -0.63700986
C       -1.23493078      -9.03561286       0.72933033
S       -2.97390417      -8.50194168       3.93247065
O       -2.50125591      -8.40504920       5.29672467
O       -4.21001413      -7.84484092       3.55301459
C       -3.10635353     -10.23237480       3.52098043
H        2.00250231      -5.85250800       4.20573803
H        2.72613992      -3.89687851       3.39614804
H       -0.47232427      -2.62251693       1.27180320
H        4.13950493       0.13724819       1.24583412
H        2.91517542       1.27246010       1.84373650
H        3.02374865       0.90776952       0.11044693
H       -1.10406672      -5.97715382       2.42834850
H       -1.80967775      -6.12121056       4.02865662
H       -3.50995717      -6.58307562       1.39153135
H       -3.93029455      -6.86003595      -1.01896994
H       -2.65398691      -8.54024961      -2.32710601
H       -0.92911608      -9.92232865      -1.22202282
H       -3.43263845     -10.33778892       2.48486563
H       -3.85950951     -10.67205327       4.17910466
H       -2.14517009     -10.71806073       3.69081812
C       -0.20103195      -9.84772992       1.31679871
C        0.66485832     -10.52787796       1.80880349
Br       2.06492964     -11.62761981       2.60433359
