178
Properties=species:S:1:pos:R:3 pbc="F F F"
O        7.45687876       7.14749419      -1.05127877
C        6.55874785       6.36159130      -0.74677846
N        5.82693710       5.75691046      -1.74977617
N        4.86137447       4.82884898      -1.49822572
C        4.31347165       4.29232976      -2.54360223
C        3.29880686       3.28809726      -2.40005390
C        2.73737132       2.68779954      -1.28889684
C        1.78048748       1.78048748      -1.78048748
C        1.80108105       1.85900330      -3.15135743
C        1.04595826       1.19434062      -4.23186181
O        2.73294781       2.78091374      -3.53797018
C        6.17489176       6.00824898       0.68357648
N        7.35448712       6.09304770       1.59891225
C        7.72762737       4.84374857       2.22587811
C        6.86550075       4.22592255       3.14172838
C        7.22799054       3.02902844       3.76109780
C        8.45527476       2.43769125       3.47123801
C        9.31669491       3.03434631       2.55018080
C        8.95185615       4.22860335       1.92073501
Br      10.16056168       4.96008223       0.65218173
S        7.33246841       7.46512248       2.60737067
O        7.08488381       8.62834468       1.78299846
O        6.46592528       7.18882014       3.73719195
C        9.01334625       7.55976922       3.19640169
H        6.08820689       6.00207337      -2.70018016
H        4.60175866       4.57560292      -3.57151695
H        2.99600223       2.89581561      -0.25989009
H        1.61337314       1.19666981      -5.16775998
H        0.09823900       1.71340264      -4.40452226
H        0.82706933       0.15323959      -3.97582922
H        5.75395325       4.99849413       0.72129970
H        5.37493662       6.68996147       0.99499658
H        5.90536613       4.67547299       3.38647725
H        6.55164096       2.56268512       4.47384255
H        8.74024750       1.50919046       3.96056918
H       10.26948759       2.55966908       2.32825486
H        9.23997753       6.67798471       3.79823406
H        9.09426370       8.45070051       3.82360372
H        9.68909894       7.64993731       2.34561541
O       -1.72767788      -4.98689277      -8.94108107
C       -1.39381793      -4.29477249      -7.97852719
N       -2.23091403      -4.22002622      -6.88268349
N       -1.90516996      -3.52895917      -5.75432004
C       -2.75615275      -3.61338599      -4.77986490
C       -2.50799918      -2.94329088      -3.53566797
C       -1.44997989      -2.17325678      -3.09083103
C       -1.78048748      -1.78048748      -1.78048748
C       -3.00586564      -2.32374339      -1.48183276
C       -3.89325532      -2.27594118      -0.30296418
O       -3.45658688      -3.04087397      -2.55437088
C       -0.10629669      -3.48518077      -7.90808680
N        0.98410826      -4.12919772      -8.70353311
C        2.13328112      -4.54796876      -7.93081018
C        2.94498902      -3.59748389      -7.29720005
C        4.06369525      -3.99560642      -6.56401001
C        4.38211215      -5.34726927      -6.45657089
C        3.57409752      -6.30501283      -7.06994511
C        2.44698122      -5.90957586      -7.79712985
Br       1.37623297      -7.27289744      -8.57179772
S        1.31339464      -3.33181358     -10.17180128
O        0.06019211      -3.12523593     -10.86518621
O        2.17493746      -2.19855739      -9.89393353
C        2.25164652      -4.54196604     -11.08639425
H       -3.08885011      -4.76055661      -6.94105371
H       -3.68971928      -4.19803277      -4.86112649
H       -0.56155840      -1.93220555      -3.65794397
H       -4.55777194      -3.14513634      -0.27489465
H       -4.51102443      -1.37320594      -0.33193352
H       -3.31393713      -2.26750166       0.62530066
H        0.21411200      -3.37839965      -6.86686003
H       -0.32481331      -2.47413226      -8.27095594
H        2.71683417      -2.53645212      -7.37474391
H        4.68813886      -3.24720541      -6.08141698
H        5.25873550      -5.65588424      -5.89172002
H        3.83023551      -7.35740092      -6.97373641
H        3.19210853      -4.74185607     -10.56998064
H        2.46737583      -4.11854237     -12.07019395
H        1.65626362      -5.44796149     -11.20172295
O       -5.20147539       8.83933494       1.61484139
C       -4.49071839       7.88782022       1.28857900
N       -4.35850547       6.82036718       2.15475108
N       -3.64356464       5.70340316       1.84148137
C       -3.67363735       4.75299214       2.72277414
C       -2.97388737       3.52202229       2.49104837
C       -2.22208442       3.06821640       1.42376688
C       -1.78048748       1.78048748       1.78048748
C       -2.27840110       1.50313990       3.02990078
C       -2.16913374       0.35346301       3.94956394
O       -3.01404218       2.56733284       3.47045671
C       -3.71739566       7.80231916      -0.02015056
N       -4.41673338       8.54534462      -1.11345544
C       -4.84546868       7.72640540      -2.22637625
C       -3.90047541       7.09669914      -3.04747963
C       -4.30888065       6.31878062      -4.13174010
C       -5.66542913       6.16228244      -4.40598356
C       -6.61717271       6.77144689      -3.58775919
C       -6.21102351       7.54354036      -2.49483938
Br      -7.56516090       8.30990787      -1.40660659
S       -3.67395294      10.02572387      -1.50945659
O       -3.45178759      10.76232173      -0.28387929
O       -2.55853256       9.75529210      -2.39627119
C       -4.93806558      10.87581046      -2.43716228
H       -4.87521183       6.88873189       3.02651671
H       -4.23289802       4.84521700       3.67076351
H       -2.02434117       3.61509965       0.51226711
H       -3.01726896       0.32001536       4.64051860
H       -1.24999070       0.42744789       4.53872530
H       -2.14967054      -0.59119976       3.39766735
H       -3.58869561       6.75547732      -0.31302526
H       -2.71178459       8.20104251       0.15707440
H       -2.83604155       7.21210241      -2.85378209
H       -3.56486543       5.83968979      -4.76407169
H       -5.98239647       5.56247177      -5.25599948
H       -7.67322674       6.63680461      -3.80912954
H       -5.14973237      10.32565146      -3.35565566
H       -4.55098718      11.86462891      -2.69425560
H       -5.82931472      10.98247337      -1.81836725
O        2.25617386      -4.15675082       9.24272705
C        1.88433753      -3.53798674       8.24479334
N        2.58400905      -3.68621029       7.06340439
N        2.19975217      -3.08754752       5.90114948
C        2.91064774      -3.38126376       4.85749213
C        2.58645637      -2.82541634       3.57508531
C        1.57217110      -1.98466728       3.15722932
C        1.78048748      -1.78048748       1.78048748
C        2.89350021      -2.49904641       1.41889517
C        3.62967805      -2.68905757       0.15342508
O        3.39136431      -3.14481309       2.51565434
C        0.69383046      -2.58930344       8.21643036
N       -0.35455411      -3.00435067       9.19882601
C       -1.62846894      -3.36088294       8.61308383
C       -2.40323726      -2.39286882       7.96006335
C       -3.64000488      -2.72845633       7.40746973
C       -4.11456393      -4.03452966       7.50176228
C       -3.34670880      -5.01145690       8.13611232
C       -2.10267322      -4.68020325       8.68219446
Br      -1.10007661      -6.07182937       9.49670943
S       -0.41262986      -2.01742282      10.58542726
O        0.93106540      -1.89160169      11.10756293
O       -1.17306347      -0.82424086      10.26637606
C       -1.35801599      -2.99660024      11.73812952
H        3.37858486      -4.31816381       7.09371175
H        3.77782746      -4.06350705       4.90754402
H        0.79151080      -1.57624752       3.78394961
H        4.18704845      -3.63095355       0.15980093
H        4.34100659      -1.87105873       0.00409857
H        2.94540534      -2.71091737      -0.70018457
H        0.26184194      -2.55817846       7.21112728
H        1.06401509      -1.57916338       8.42672304
H       -2.05305086      -1.36569422       7.88171850
H       -4.23356410      -1.96627537       6.90777226
H       -5.08214921      -4.29313246       7.07788552
H       -3.72584425      -6.02871072       8.19803535
H       -2.37079480      -3.13485089      11.35567208
H       -1.40416940      -2.44527543      12.68025446
H       -0.85528744      -3.95070360      11.89800467
C       -0.00445707       0.01189536      -1.78238275
H       -0.66409135       0.67374010      -2.43557963
H        0.65740317      -0.63156657      -2.45157240
C       -0.90989263      -0.90692880      -0.91072765
C        0.90977584       0.90977584      -0.90977584
C       -0.00465871       1.77757030       0.00794375
H       -0.66225468       2.44313916      -0.64384735
H        0.64322798       2.43503045       0.67728295
C       -1.78241447       0.00034974      -0.00472694
H       -2.45427497      -0.65498947       0.64260836
H       -2.43311707       0.67328779      -0.65473579
C       -0.91132561       0.90220522       0.91563759
C       -0.01476271      -0.02253852       1.78660255
H       -0.67934791      -0.69751639       2.42135241
H        0.63392994       0.61504881       2.47327442
C        0.01484550      -1.77751727      -0.01636693
H        0.67870853      -2.42144646      -0.68295456
H       -0.62264859      -2.45592969       0.64226336
C        1.78714474       0.01002794       0.00389507
H        2.44202412       0.67113390       0.66197326
H        2.45385902      -0.65136977      -0.64189061
C        0.91606151      -0.90478549       0.90901405
