161
Properties=species:S:1:pos:R:3 pbc="F F F"
C        0.00000000       0.00000000       0.00000000
C        0.88180030       0.88180030      -0.88180030
C        0.62541436       0.96973913      -2.24816924
C        1.43187626       1.77530101      -3.05409866
C        2.48954166       2.51530497      -2.49834165
C        2.73733214       2.40541560      -1.12127819
C        1.93767676       1.59186605      -0.31570610
C        3.36182415       3.39561536      -3.36748147
S        2.39967604       4.71318131      -4.17573518
C        3.66231124       5.65491238      -4.90135675
N        4.92453502       5.29722626      -4.88163965
N        5.63498209       6.21823175      -5.58755541
C        4.80776570       7.15980614      -6.00877281
C        5.27490849       8.40820583      -6.62126820
C        4.75462057       9.65506451      -6.26086647
C        5.27118427      10.78869945      -6.86455170
N        6.26447597      10.76553048      -7.77649772
C        6.77912812       9.55746538      -8.08620685
C        6.32564085       8.36836199      -7.54254234
N        3.49489311       6.79213999      -5.68540847
C        2.28641965       7.42169134      -6.12167041
C        2.21473255       7.97317231      -7.41255091
C        1.03999123       8.58953184      -7.85703194
C       -0.07177862       8.64740382      -7.02275445
Br      -1.66151472       9.46972359      -7.62738084
C       -0.01673298       8.10389240      -5.74279774
C        1.16123224       7.49871856      -5.29011540
H       -0.19802672       0.41790804      -2.69497184
H        1.22217451       1.83148121      -4.11987821
H        3.55941553       2.95486151      -0.66299196
H        2.14585975       1.51975642       0.74865205
H        3.85325521       2.77544901      -4.12396872
H        4.14583199       3.85589310      -2.75400304
H        3.97214883       9.75858161      -5.51616409
H        4.89235134      11.77692101      -6.61833193
H        7.59740709       9.57101481      -8.80090999
H        6.79302712       7.42916562      -7.82386742
H        3.04504968       7.90903636      -8.11233961
H        1.00217402       9.01014014      -8.85982904
H       -0.88132191       8.14866734      -5.08508876
H        1.17039426       7.13637326      -4.26544549
C       -0.88180030      -0.88180030      -0.88180030
C       -0.83043706      -2.26717810      -0.74570757
C       -1.63605078      -3.07302888      -1.55219626
C       -2.51436304      -2.50064298      -2.48818226
C       -2.54405669      -1.10335848      -2.61661075
C       -1.73111370      -0.29655442      -1.81758078
C       -3.39487533      -3.37054584      -3.35949981
S       -4.54560271      -4.37469669      -2.36829314
C       -5.53504801      -5.07498921      -3.60854315
N       -5.29792846      -4.91625916      -4.88921332
N       -6.21767192      -5.64158002      -5.58151731
C       -7.04033852      -6.21576779      -4.72023834
C       -8.27040338      -6.89899819      -5.13498096
C       -9.49000839      -6.69991218      -4.48063098
C      -10.61149233      -7.35968313      -4.95325996
N      -10.60310552      -8.17875763      -6.02464102
C       -9.42574049      -8.33158988      -6.66546998
C       -8.24997065      -7.72095829      -6.26561624
N       -6.58199112      -5.97163152      -3.41881893
C       -7.05873093      -6.56413951      -2.20691096
C       -7.49063765      -7.90171116      -2.20810696
C       -7.95669975      -8.49832074      -1.03153451
C       -7.98208097      -7.76947523       0.15317656
Br      -8.60083731      -8.57886397       1.74411157
C       -7.55563108      -6.44487623       0.17055014
C       -7.10165436      -5.84088694      -1.00752490
H       -0.16954824      -2.72905188      -0.01625304
H       -1.58277703      -4.15331179      -1.43744510
H       -3.20342083      -0.62998560      -3.34386258
H       -1.76832299       0.78365570      -1.93229684
H       -2.76107128      -4.02270591      -3.96889575
H       -3.97532976      -2.73819478      -4.04220359
H       -9.58343027      -6.03641905      -3.62704521
H      -11.57787914      -7.23818660      -4.47153852
H       -9.45429091      -8.97307263      -7.54196835
H       -7.33741718      -7.87434103      -6.83430196
H       -7.44447207      -8.52023599      -3.10171760
H       -8.28612390      -9.53516695      -1.05085235
H       -7.57589147      -5.86920684       1.09266412
H       -6.82924380      -4.79011078      -0.95285844
C       -0.88180030       0.88180030       0.88180030
C       -1.52668403       0.33017973       1.98645897
C       -2.33311128       1.13618290       2.79198175
C       -2.48650220       2.50480991       2.51187617
C       -1.83613967       3.03910341       1.38878285
C       -1.03739076       2.23160226       0.57625589
C       -3.35415501       3.38380214       3.38696383
S       -2.74365446       3.44371566       5.10122242
C       -3.77668810       4.65795166       5.78394060
N       -4.77406089       5.20186324       5.12747681
N       -5.41182487       6.06245569       5.96648870
C       -4.77910383       6.06976805       7.12747277
C       -5.07804326       7.04021655       8.18612271
C       -4.07160262       7.71439509       8.88455385
C       -4.43798749       8.63767549       9.84877245
N       -5.71755989       8.94038834      10.14855594
C       -6.67543067       8.30688510       9.44048457
C       -6.40953433       7.36400886       8.46300199
N       -3.77189914       5.09591271       7.10462972
C       -2.98295279       4.63938014       8.20744847
C       -3.55721557       4.55561648       9.48762372
C       -2.80160161       4.10815373      10.57679966
C       -1.47548210       3.73003314      10.39286439
Br      -0.45879944       3.11514610      11.86164417
C       -0.89366362       3.80538524       9.13090830
C       -1.64271066       4.26548248       8.04187305
H       -1.40803877      -0.72289171       2.22970611
H       -2.83338308       0.69106967       3.64908117
H       -1.94743145       4.09345084       1.13638671
H       -0.54222047       2.66404829      -0.28930464
H       -4.38019806       3.00258309       3.36989178
H       -3.37103046       4.40285606       2.98184162
H       -3.01886167       7.54485189       8.68318098
H       -3.68865540       9.17991395      10.41903493
H       -7.69584262       8.59142961       9.68205966
H       -7.22708541       6.90014917       7.91882558
H       -4.60256276       4.79780030       9.66606259
H       -3.26291092       4.04876105      11.56047122
H        0.14312224       3.51412808       8.98142835
H       -1.12815752       4.35532937       7.08872612
C        0.88180030      -0.88180030       0.88180030
C        1.71046508      -1.83635426       0.29650339
C        2.51593219      -2.64266124       1.10268249
C        2.51481941      -2.48874785       2.49962102
C        1.66567835      -1.52800855       3.07033902
C        0.85180939      -0.72783102       2.26560849
C        3.39205705      -3.35600702       3.37685691
S        5.15898680      -3.12847954       3.00112620
C        5.89458590      -4.05412987       4.26986460
N        5.20570987      -4.77492389       5.12276717
N        6.08479305      -5.41683631       5.93913990
C        7.31287136      -5.05799695       5.60547634
C        8.48622803      -5.40245930       6.41569519
C        9.47950041      -4.46760811       6.72344303
C       10.54011938      -4.86480520       7.51951084
N       10.66808549      -6.10517277       8.03324591
C        9.68286738      -6.98413550       7.75579747
C        8.58759884      -6.68404959       6.96489674
N        7.25834506      -4.25704587       4.45705064
C        8.35809596      -3.81725534       3.65443009
C        9.46859635      -4.65945404       3.47240538
C       10.55133096      -4.24714342       2.68808062
C       10.52658125      -3.00030349       2.07149490
Br      11.98380098      -2.44850281       1.00328592
C        9.43309781      -2.15625404       2.24060532
C        8.35437680      -2.56006362       3.03562577
H        1.73805951      -1.96015891      -0.78336526
H        3.15521734      -3.38622035       0.63209623
H        1.63086540      -1.39494468       4.15145892
H        0.20076965       0.01042183       2.72661630
H        3.11291936      -4.40495226       3.23480132
H        3.21956110      -3.10555548       4.43061155
H        9.43483245      -3.44288321       6.36917888
H       11.33659933      -4.17251278       7.77849216
H        9.79662220      -7.96623038       8.20647932
H        7.82105805      -7.43369346       6.79130865
H        9.50819084      -5.65934985       3.89888497
H       11.40216806      -4.91266490       2.55731023
H        9.40923692      -1.17945915       1.76373813
H        7.54879290      -1.84461850       3.17880162
