190
Properties=species:S:1:pos:R:3 pbc="F F F"
C        1.79170433       1.79170433      -1.79170433
C        1.53531838       1.87964315      -3.15807326
C        2.34178029       2.68520503      -3.96400268
C        3.39944568       3.42520900      -3.40824567
C        3.64723616       3.31531963      -2.03118221
C        2.84758078       2.50177007      -1.22561012
C        4.27172817       4.30551938      -4.27738550
S        3.30958007       5.62308534      -5.08563921
C        4.57221527       6.56481640      -5.81126077
N        5.83443905       6.20713028      -5.79154368
N        6.54488612       7.12813577      -6.49745944
C        5.71766973       8.06971017      -6.91867683
C        6.18481251       9.31810985      -7.53117223
C        5.66452459      10.56496854      -7.17077050
C        6.18108830      11.69860347      -7.77445573
N        7.17438000      11.67543450      -8.68640174
C        7.68903214      10.46736940      -8.99611087
C        7.23554487       9.27826601      -8.45244636
N        4.40479713       7.70204401      -6.59531249
C        3.19632367       8.33159537      -7.03157444
C        3.12463657       8.88307634      -8.32245493
C        1.94989526       9.49943586      -8.76693596
C        0.83812540       9.55730784      -7.93265847
C        0.89317105       9.01379643      -6.65270177
C        2.07113626       8.40862259      -6.20001942
H        0.71187730       1.32781207      -3.60487587
H        2.13207853       2.74138524      -5.02978223
H        4.46931955       3.86476554      -1.57289599
H        3.05576377       2.42966045      -0.16125198
H        4.76315924       3.68535303      -5.03387274
H        5.05573601       4.76579712      -3.66390707
H        4.88205286      10.66848564      -6.42606811
H        5.80225536      12.68682503      -7.52823595
H        8.50731111      10.48091884      -9.71081402
H        7.70293115       8.33906965      -8.73377144
H        3.95495370       8.81894039      -9.02224364
H        1.91207805       9.92004416      -9.76973306
H        0.02858212       9.05857136      -5.99499278
H        2.08029828       8.04627729      -5.17534951
C       -0.37362059      10.18410539      -8.39352340
C       -1.38845786      10.70904834      -8.77949777
Br      -3.02936390      11.55783668      -9.40358570
C       -1.79170433      -1.79170433      -1.79170433
C       -1.68241448      -1.71247812      -3.17814220
C       -2.48890729      -2.51810381      -3.98397690
C       -3.39783953      -3.42403017      -3.41103064
C       -3.49964230      -3.48166918      -2.01242651
C       -2.70072199      -2.66887316      -1.20536583
C       -4.26896251      -4.30456521      -4.28110533
S       -3.27575483      -5.41805868      -5.32449111
C       -4.51053087      -6.41746760      -6.02029397
N       -5.79214423      -6.20719832      -5.83377045
N       -6.48090269      -7.12626020      -6.56331844
C       -5.61556754      -7.92209182      -7.16839737
C       -6.02039782      -9.14696686      -7.86672991
C       -5.34024931     -10.35760411      -7.70241021
C       -5.80449545     -11.47544315      -8.37420890
N       -6.89092819     -11.47204033      -9.17324773
C       -7.55592561     -10.30422286      -9.29236395
C       -7.16633873      -9.13257364      -8.66734488
N       -4.31842752      -7.44411476      -6.93961136
C       -3.10925280      -7.88726836      -7.56297232
C       -3.12747295      -8.29458029      -8.90811460
C       -1.95389347      -8.72764327      -9.53473033
C       -0.75553990      -8.74427212      -8.82827969
C       -0.72128960      -8.34187636      -7.49650328
C       -1.89601254      -7.92105765      -6.86270808
H       -0.97390626      -1.02977153      -3.64088744
H       -2.39530117      -2.44294692      -5.06499791
H       -4.20576218      -4.16302092      -1.53819798
H       -2.79458825      -2.72796908      -0.12411886
H       -4.90189871      -3.67040280      -4.91008351
H       -4.92903053      -4.90911238      -3.64729730
H       -4.47288122     -10.44722544      -7.05649996
H       -5.30299491     -12.43474609      -8.27957534
H       -8.44355693     -10.33736188      -9.91812516
H       -7.75438326      -8.22812296      -8.79326603
H       -4.03314974      -8.25376768      -9.50922031
H       -1.98650003      -9.03834681     -10.57700843
H        0.21160828      -8.35547745      -6.93827709
H       -1.82676680      -7.66694437      -5.80821391
C        0.45383773      -9.18186186      -9.47598407
C        1.46669150      -9.54834327     -10.01843648
Br       3.10439038     -10.14091271     -10.89553615
C       -1.79170433       1.79170433       1.79170433
C       -3.17829304       1.69898126       1.69576049
C       -3.98411802       2.50547632       2.50139365
C       -3.41132495       3.39769594       3.42387946
C       -2.01241123       3.48303660       3.49829016
C       -1.20519477       2.68417935       2.68558685
C       -4.28150613       4.26870189       4.30442503
S       -5.34844184       3.27496801       5.39489477
C       -6.04165296       4.50628338       6.40035610
N       -5.83845559       5.78797667       6.20668075
N       -6.57060101       6.47462257       7.12525775
C       -7.19426653       5.60734159       7.90444861
C       -7.90182906       6.00632515       9.12594038
C       -7.75881136       5.31087750      10.33057477
C       -8.43796987       5.77016562      11.44601200
N       -9.22472912       6.86552886      11.44595826
C       -9.32320225       7.54483801      10.28447215
C       -8.68937508       7.16132966       9.11555251
N       -6.97460268       4.31312105       7.41442991
C       -7.61640462       3.10619147       7.83689739
C       -8.96577632       3.13505887       8.22933265
C       -9.61032084       1.96386958       8.64207666
C       -8.91753819       0.75749817       8.65305536
C       -7.58176535       0.71269875       8.26520514
C       -6.93016787       1.88481341       7.86479700
H       -3.64118194       1.00342068       0.99996262
H       -5.06519917       2.42493813       2.41310870
H       -1.53805187       4.17609452       4.19283469
H       -0.12370328       2.76515459       2.75781833
H       -4.89616574       4.91575240       3.67046687
H       -3.64723409       4.91476865       4.92343746
H       -7.12368776       4.43531827      10.41760058
H       -8.35979299       5.25693939      12.40058396
H       -9.93934020       8.43905845      10.32064532
H       -8.79848840       7.76082958       8.21645426
H       -9.55622453       4.04787024       8.19204296
H      -10.65561410       2.00477855       8.94146262
H       -7.03418792      -0.22654163       8.27449997
H       -5.87370900       1.80649948       7.62171660
C       -9.58361986      -0.44929703       9.06968536
C      -10.14146326      -1.45998800       9.41861299
Br     -11.04344886      -3.09418983       9.98279946
C        1.79170433      -1.79170433       1.79170433
C        3.10517593      -2.05684391       1.41101496
C        3.91082554      -2.86334314       2.21681932
C        3.41698160      -3.39594451       3.41997424
C        2.08800940      -3.12495425       3.78077436
C        1.27785799      -2.32674495       2.97035804
C        4.28950686      -4.26491404       4.30021215
S        5.75899352      -3.36741580       4.89189530
C        6.42397629      -4.51228075       6.01203540
N        5.93710093      -5.71952804       6.17648403
N        6.72303096      -6.37249375       7.07495662
C        7.67139843      -5.54816815       7.48649014
C        8.56250062      -5.86326297       8.60833100
C        8.85132385      -4.93528303       9.61365675
C        9.67818548      -5.32129934      10.65466268
N       10.21550095      -6.55310522      10.76761008
C        9.89783952      -7.44666868       9.80800421
C        9.08658236      -7.15397389       8.72570100
N        7.59339658      -4.35856222       6.75019484
C        8.53828112      -3.28427880       6.73693356
C        9.91087811      -3.56201766       6.85727207
C       10.84913969      -2.52426178       6.84286561
C       10.42522285      -1.20746667       6.69540220
C        9.06973535      -0.91697586       6.57295804
C        8.12756649      -1.95153283       6.60067895
H        3.51135858      -1.64108561       0.49212105
H        4.93323196      -3.06481899       1.90519505
H        1.67109651      -3.53580361       4.70008096
H        0.25110034      -2.12867743       3.26689843
H        4.59639672      -5.15085391       3.73513437
H        3.71131081      -4.60699932       5.16713007
H        8.43689962      -3.93240134       9.60730564
H        9.93319631      -4.63044855      11.45367149
H       10.32036411      -8.43898704       9.93969282
H        8.85777603      -7.92366667       7.99432953
H       10.28764804      -4.57996230       6.92852739
H       11.90773810      -2.75794128       6.93617589
H        8.73206926       0.11036087       6.46043787
H        7.07914973      -1.66873711       6.55403824
C       11.39176424      -0.14029868       6.67194528
C       12.20124265       0.75345451       6.65230011
Br      13.51010078       2.19857783       6.62053553
C       -0.00445707       0.01189536      -1.78238275
H       -0.66409135       0.67374010      -2.43557963
H        0.65740317      -0.63156657      -2.45157240
C       -0.90989263      -0.90692880      -0.91072765
C        0.90977584       0.90977584      -0.90977584
C       -0.00465871       1.77757030       0.00794375
H       -0.66225468       2.44313916      -0.64384735
H        0.64322798       2.43503045       0.67728295
C       -1.78241447       0.00034974      -0.00472694
H       -2.45427497      -0.65498947       0.64260836
H       -2.43311707       0.67328779      -0.65473579
C       -0.91132561       0.90220522       0.91563759
C       -0.01476271      -0.02253852       1.78660255
H       -0.67934791      -0.69751639       2.42135241
H        0.63392994       0.61504881       2.47327442
C        0.01484550      -1.77751727      -0.01636693
H        0.67870853      -2.42144646      -0.68295456
H       -0.62264859      -2.45592969       0.64226336
C        1.78714474       0.01002794       0.00389507
H        2.44202412       0.67113390       0.66197326
H        2.45385902      -0.65136977      -0.64189061
C        0.91606151      -0.90478549       0.90901405
