169
Properties=species:S:1:pos:R:3 pbc="F F F"
C        0.00000000       0.00000000       0.00000000
C        0.88180030       0.88180030      -0.88180030
C        0.62541436       0.96973913      -2.24816924
C        1.43187626       1.77530101      -3.05409866
C        2.48954166       2.51530497      -2.49834165
C        2.73733214       2.40541560      -1.12127819
C        1.93767676       1.59186605      -0.31570610
C        3.36182415       3.39561536      -3.36748147
S        2.39967604       4.71318131      -4.17573518
C        3.66231124       5.65491238      -4.90135675
N        4.92453502       5.29722626      -4.88163965
N        5.63498209       6.21823175      -5.58755541
C        4.80776570       7.15980614      -6.00877281
C        5.27490849       8.40820583      -6.62126820
C        4.75462057       9.65506451      -6.26086647
C        5.27118427      10.78869945      -6.86455170
N        6.26447597      10.76553048      -7.77649772
C        6.77912812       9.55746538      -8.08620685
C        6.32564085       8.36836199      -7.54254234
N        3.49489311       6.79213999      -5.68540847
C        2.28641965       7.42169134      -6.12167041
C        2.21473255       7.97317231      -7.41255091
C        1.03999123       8.58953184      -7.85703194
C       -0.07177862       8.64740382      -7.02275445
C       -0.01673298       8.10389240      -5.74279774
C        1.16123224       7.49871856      -5.29011540
H       -0.19802672       0.41790804      -2.69497184
H        1.22217451       1.83148121      -4.11987821
H        3.55941553       2.95486151      -0.66299196
H        2.14585975       1.51975642       0.74865205
H        3.85325521       2.77544901      -4.12396872
H        4.14583199       3.85589310      -2.75400304
H        3.97214883       9.75858161      -5.51616409
H        4.89235134      11.77692101      -6.61833193
H        7.59740709       9.57101481      -8.80090999
H        6.79302712       7.42916562      -7.82386742
H        3.04504968       7.90903636      -8.11233961
H        1.00217402       9.01014014      -8.85982904
H       -0.88132191       8.14866734      -5.08508876
H        1.17039426       7.13637326      -4.26544549
C       -1.28352462       9.27420137      -7.48361937
C       -2.29836189       9.79914431      -7.86959375
Br      -3.93926792      10.64793266      -8.49368167
C       -0.88180030      -0.88180030      -0.88180030
C       -0.37286420      -1.40001804      -2.07044048
C       -1.17918961      -2.20548906      -2.87659726
C       -2.49483250      -2.51611013      -2.49224565
C       -2.99190159      -1.97621087      -1.29591347
C       -2.18964432      -1.16190075      -0.49370384
C       -3.37002750      -3.39503119      -3.35986229
S       -2.66305628      -5.06025756      -3.56527870
C       -3.95158332      -5.87283291      -4.39416414
N       -5.03762532      -5.26143617      -4.80433945
N       -5.80773304      -6.16771315      -5.46532307
C       -5.20539132      -7.34413782      -5.42681552
C       -5.85907073      -8.58308804      -5.86222375
C       -5.79698811      -9.76149897      -5.11206447
C       -6.46683251     -10.87995403      -5.57764888
N       -7.19428404     -10.89911636      -6.71310378
C       -7.27279128      -9.74409932      -7.40590975
C       -6.63363842      -8.57690523      -7.02600153
N       -3.94345134      -7.19182292      -4.83716730
C       -2.89403539      -8.16225528      -4.77349073
C       -2.70339896      -9.05366254      -5.84339427
C       -1.68011584     -10.00679285      -5.79964631
C       -0.83475456     -10.06720795      -4.69641713
C       -1.00968897      -9.18987940      -3.63038880
C       -2.04086893      -8.24424113      -3.66495614
H        0.64768498      -1.18486313      -2.37767502
H       -0.76965833      -2.60017160      -3.80370400
H       -4.01298146      -2.18622399      -0.97806356
H       -2.59300879      -0.75302986       0.42907453
H       -3.49470438      -2.91983041      -4.33813814
H       -4.36394445      -3.48650048      -2.90528320
H       -5.25335001      -9.81888293      -4.17466160
H       -6.44054749     -11.81771271      -5.02934406
H       -7.88901880      -9.78024347      -8.30006963
H       -6.74893848      -7.67580243      -7.62131925
H       -3.31244528      -9.01034696      -6.74363342
H       -1.54657812     -10.68812722      -6.63743785
H       -0.35412871      -9.23416132      -2.76414416
H       -2.16852089      -7.61750162      -2.78619050
C        0.22377620     -11.04262288      -4.65544945
C        1.11029572     -11.85953288      -4.62113902
Br       2.54372279     -13.18040725      -4.56566195
C       -0.88180030       0.88180030       0.88180030
C       -2.07525225       1.39201826       0.37605221
C       -2.88081335       2.19847962       1.18198296
C       -2.51030975       2.48607778       2.50680075
C       -1.29941467       1.97038998       2.99422128
C       -0.48764712       1.17197030       2.18563148
C       -3.38448030       3.35410268       3.38633801
S       -5.03242970       2.62105474       3.63510810
C       -5.70350041       3.69600399       4.81907597
N       -5.09240934       4.78250735       5.22848424
N       -5.91304566       5.42335471       6.10436888
C       -7.01345491       4.70628031       6.25660943
C       -8.01574629       5.00276246       7.28587377
C       -8.57438592       4.00523786       8.09092778
C       -9.49207179       4.37205445       9.06030919
N       -9.87303747       5.64558814       9.28787856
C       -9.29766519       6.59897301       8.52616215
C       -8.37665208       6.33138951       7.52850359
N       -6.98174341       3.62637117       5.36432698
C       -8.04694515       2.71999388       5.06284237
C       -9.37304807       3.18545844       5.04194925
C      -10.42676852       2.31399945       4.74578704
C      -10.16282270       0.97906917       4.45648777
C       -8.85483930       0.50400152       4.47111635
C       -7.79974429       1.36997467       4.78034724
H       -2.38782560       1.16798734      -0.64095977
H       -3.80811171       2.59284358       0.77257863
H       -0.97704218       2.18792208       4.01230475
H        0.44666298       0.78227143       2.58135567
H       -3.48199730       4.34320207       2.92747356
H       -2.90522239       3.48660158       4.36390416
H       -8.29983572       2.96060020       7.98645861
H       -9.95484309       3.62885477       9.70390641
H       -9.60065611       7.61796147       8.75071433
H       -7.93945800       7.14688283       6.95971934
H       -9.61862733       4.23054361       5.21725471
H      -11.44701535       2.69199389       4.73313395
H       -8.64250728      -0.53887493       4.24880184
H       -6.80306748       0.93926764       4.82987789
C      -11.24674277       0.08430892       4.14324443
C      -12.15452583      -0.66505278       3.88090313
Br     -13.62233425      -1.87670728       3.45671943
C        0.88180030      -0.88180030       0.88180030
C        2.22051124      -1.07443930       0.54837219
C        3.02619166      -1.88094376       1.35414050
C        2.50602723      -2.48621096       2.51095008
C        1.15242444      -2.28751056       2.82409093
C        0.34280893      -1.48926749       2.01317248
C        3.37807164      -3.35552598       3.39132336
S        4.78049592      -2.42384187       4.08425476
C        5.44740844      -3.58781770       5.18335422
N        5.00756139      -4.82054585       5.27529370
N        5.78291214      -5.47870314       6.17915398
C        6.67598020      -4.63407305       6.66629140
C        7.53206076      -4.96037398       7.81194778
C        7.73726035      -4.06613232       8.86715889
C        8.53573793      -4.46237513       9.92632237
N        9.12143076      -5.67424712      10.01082629
C        8.88400985      -6.53735879       9.00143171
C        8.10694659      -6.23179319       7.89780540
N        6.57683977      -3.41760072       5.97800108
C        7.47332677      -2.30495667       6.05149796
C        8.85051987      -2.52969875       6.22023715
C        9.74204943      -1.45374298       6.29076259
C        9.26726332      -0.15074983       6.18036649
C        7.90667631       0.08753320       6.01081406
C        7.01054577      -0.98597908       5.95354135
H        2.64634699      -0.60197886      -0.33347268
H        4.06867244      -2.02532214       1.07953934
H        0.71564526      -2.75554091       3.70608283
H       -0.70323040      -1.34781147       2.27238306
H        3.74710492      -4.20207794       2.80349008
H        2.77949151      -3.75940575       4.21683087
H        7.27980377      -3.08227203       8.88481874
H        8.72629091      -3.79718061      10.76413275
H        9.34381241      -7.51584184       9.10967765
H        7.94316721      -6.97755277       7.12534019
H        9.26832211      -3.53303082       6.26507273
H       10.80502728      -1.64653529       6.42058063
H        7.52922951       1.10369898       5.92690365
H        5.95360826      -0.74578374       5.87282101
C       10.18610882       0.95615148       6.24433878
C       10.95564193       1.88318132       6.29791557
Br      12.19991187       3.38211017       6.38454470
