198
Properties=species:S:1:pos:R:3 pbc="F F F"
C        1.79179680       1.79179680      -1.79179680
C        1.20695258       2.69131766      -2.67618147
C        2.01986505       3.48625257      -3.48899490
C        3.42275109       3.39751024      -3.42771807
C        3.99037674       2.47449827      -2.53939528
C        3.17742291       1.68122309      -1.71827970
C        4.24025940       4.20906126      -4.41655498
C        5.62907862       4.73412546      -3.97838411
C        6.47081520       5.16210478      -5.20118806
C        5.86782470       6.11627740      -6.20762020
C        5.24094314       5.62651709      -7.36317392
C        4.78517470       6.50133153      -8.35307336
C        4.95594300       7.87391650      -8.19477096
Br       4.39410399       9.05613938      -9.55805261
C        5.55499196       8.37928726      -7.04544898
C        6.00206236       7.50251448      -6.05355410
C        5.52054315       5.85470903      -2.93803749
O        4.47839040       6.50619308      -2.83164825
C        6.73129750       6.20480299      -2.02231460
C        7.16701389       7.64234812      -2.35088060
C        6.24492256       6.15767534      -0.56169122
C        7.95161667       5.27957220      -2.12466818
H        0.12620865       2.77783113      -2.74974318
H        1.54593184       4.17563210      -4.18622044
H        5.06456301       2.33391242      -2.47871593
H        3.63701558       0.97044804      -1.03596078
H        3.63015471       5.05812955      -4.75080531
H        4.36998928       3.55521412      -5.28972274
H        6.16305098       3.90903626      -3.49944087
H        6.76510696       4.25017333      -5.73979494
H        7.41846549       5.60389641      -4.88098191
H        5.12331737       4.55587174      -7.51643093
H        4.31716352       6.10175305      -9.24842384
H        5.69493449       9.44923889      -6.91590397
H        6.48242891       7.92201462      -5.17623821
H        7.66701779       7.68809579      -3.32345530
H        7.87000318       8.02906454      -1.60564252
H        6.31202883       8.32728371      -2.38883489
H        5.94376911       5.14155231      -0.28121926
H        5.38456281       6.81501762      -0.39603767
H        7.03637897       6.47311592       0.12974545
H        7.69082964       4.23865268      -1.90844237
H        8.72700981       5.57749310      -1.40779068
H        8.42110712       5.30910112      -3.11034136
C       -1.79179680      -1.79179680      -1.79179680
C       -3.05787661      -2.16332641      -1.35324869
C       -3.85450312      -2.98065236      -2.15995704
C       -3.40165444      -3.43356354      -3.41276142
C       -2.11728716      -3.05839199      -3.82859115
C       -1.31929484      -2.23313086      -3.02450000
C       -4.27313994      -4.40744442      -4.18529128
C       -4.24810581      -4.36102482      -5.73245755
C       -4.84784103      -5.65088265      -6.33538435
C       -6.21015855      -6.11276614      -5.86879760
C       -6.32481871      -7.06285307      -4.84296236
C       -7.57279229      -7.58067872      -4.48610858
C       -8.71598059      -7.15293765      -5.15571222
Br     -10.39778955      -7.89454807      -4.71595836
C       -8.62456291      -6.19493055      -6.16023473
C       -7.37630631      -5.67277782      -6.50904681
C       -4.92783188      -3.10226626      -6.28319153
O       -5.74094697      -2.48181838      -5.59346638
C       -4.62376303      -2.60627142      -7.72838063
C       -5.92800286      -2.69418647      -8.53805328
C       -4.19690481      -1.12915712      -7.63822719
C       -3.51715658      -3.35337085      -8.48532961
H       -3.43227685      -1.83369595      -0.38781015
H       -4.83798745      -3.27405584      -1.79574110
H       -1.70011179      -3.41093995      -4.76613962
H       -0.32522597      -1.95359329      -3.36460515
H       -5.30932552      -4.28553973      -3.84422433
H       -3.95210828      -5.40550944      -3.85730842
H       -3.20253312      -4.31974281      -6.04925218
H       -4.13636288      -6.46816881      -6.15054353
H       -4.89890556      -5.57910298      -7.42533527
H       -5.43952339      -7.42881639      -4.32728026
H       -7.63902650      -8.32800019      -3.70031372
H       -9.51185705      -5.85830894      -6.68991136
H       -7.33123512      -4.94105051      -7.30839611
H       -6.18109894      -3.73517453      -8.76229542
H       -5.84329564      -2.16720378      -9.49421082
H       -6.77448896      -2.26069618      -7.99296229
H       -3.25658743      -1.02578506      -7.08416820
H       -4.94924614      -0.51665546      -7.12971651
H       -4.04424658      -0.69931626      -8.63618660
H       -2.56657254      -3.32827439      -7.94307777
H       -3.34386933      -2.89935425      -9.46907002
H       -3.76777238      -4.39968994      -8.67308727
C       -1.79179680       1.79179680       1.79179680
C       -1.25971448       2.38189079       2.93284643
C       -2.07570776       3.17752034       3.74188442
C       -3.42814998       3.39760459       3.42222483
C       -3.94688770       2.78196464       2.27541795
C       -3.12882301       1.98935593       1.45874676
C       -4.28270222       4.17982116       4.40335226
C       -5.43647957       5.05264605       3.85246256
C       -6.42970757       5.43047456       4.97392590
C       -5.89639034       6.04828931       6.24704265
C       -5.62054913       5.24584113       7.36424388
C       -5.23912141       5.82108950       8.57936869
C       -5.13336656       7.20515347       8.68611043
Br      -4.67532054       7.98950776      10.34346768
C       -5.38104092       8.01569773       7.58298955
C       -5.75401682       7.43708063       6.36703349
C       -4.92000446       6.28766922       3.10561599
O       -3.78236506       6.71387693       3.31998974
C       -5.83222583       7.03707716       2.08911209
C       -6.07257395       8.45535112       2.63231755
C       -5.06526519       7.14147996       0.75754396
C       -7.18769739       6.38558969       1.78256997
H       -0.22024028       2.22526185       3.20828083
H       -1.64726766       3.62099849       4.63951824
H       -4.99208847       2.88295803       2.00214486
H       -3.55028800       1.51970221       0.57343420
H       -3.61936854       4.81096746       5.00875357
H       -4.70390409       3.42724218       5.08377987
H       -5.99199633       4.45353439       3.12599739
H       -6.98346569       4.52185289       5.24975664
H       -7.19810808       6.11007205       4.59516368
H       -5.72428997       4.16437899       7.30695108
H       -5.04590501       5.18371385       9.43772154
H       -5.30388009       9.09709267       7.65910458
H       -5.95947705       8.09311295       5.52809174
H       -6.75029202       8.43668743       3.49158945
H       -6.52568762       9.10384718       1.87517544
H       -5.13962023       8.92819209       2.96033511
H       -4.89181159       6.14873507       0.32599402
H       -4.08909821       7.62176579       0.88475411
H       -5.62711881       7.73070150       0.02192914
H       -7.07087256       5.36638429       1.40066786
H       -7.73176769       6.95896433       1.02156158
H       -7.84160373       6.34264422       2.65630165
C        1.79179680      -1.79179680       1.79179680
C        3.13670804      -1.95750799       1.48023568
C        3.93484871      -2.77582269       2.28444112
C        3.40449277      -3.43451778       3.40896886
C        2.04368013      -3.26437793       3.69621223
C        1.24287648      -2.43873741       2.89531180
C        4.30038909      -4.39416167       4.17132489
C        4.09385926      -4.55012569       5.69760323
C        4.78192935      -5.83015764       6.22202105
C        6.23645136      -6.07033741       5.88493352
C        6.58814999      -6.86145136       4.78103279
C        7.92473818      -7.18384697       4.53099445
C        8.91986637      -6.71853904       5.38622505
Br      10.72204213      -7.20142172       5.08483212
C        8.59247063      -5.91424069       6.47301687
C        7.25596175      -5.58658082       6.71558837
C        4.53910778      -3.30354057       6.47064131
O        5.33883619      -2.51120373       5.96619181
C        4.01149450      -3.03521510       7.91170548
C        5.21563517      -3.07760695       8.86700049
C        3.41137178      -1.61695332       7.93596402
C        2.93126287      -3.99433260       8.43026157
H        3.57295243      -1.46611766       0.61471287
H        4.98286387      -2.90624899       2.01867152
H        1.57141141      -3.77962450       4.52615545
H        0.18895709      -2.32007591       3.13439140
H        5.34431464      -4.11242324       3.98235169
H        4.14968410      -5.37176810       3.69347394
H        3.02247190      -4.66904549       5.88001072
H        4.20706039      -6.69245462       5.85556021
H        4.69909195      -5.89372248       7.31052938
H        5.82164999      -7.25636009       4.11760996
H        8.17537803      -7.81155968       3.68040269
H        9.36311985      -5.54980987       7.14714762
H        7.02663423      -4.97356697       7.58048055
H        5.57327522      -4.10320035       9.00209332
H        4.95574632      -2.69096093       9.85800299
H        6.05582448      -2.48424971       8.48807324
H        2.53470784      -1.55081117       7.28102167
H        4.13164643      -0.86264487       7.60132682
H        3.09227235      -1.33910638       8.94837071
H        2.05320251      -4.00798980       7.77673239
H        2.59034981      -3.69318636       9.42875742
H        3.29129260      -5.02077080       8.52848619
C       -0.00445707       0.01189536      -1.78238275
H       -0.66409135       0.67374010      -2.43557963
H        0.65740317      -0.63156657      -2.45157240
C       -0.90989263      -0.90692880      -0.91072765
C        0.90977584       0.90977584      -0.90977584
C       -0.00465871       1.77757030       0.00794375
H       -0.66225468       2.44313916      -0.64384735
H        0.64322798       2.43503045       0.67728295
C       -1.78241447       0.00034974      -0.00472694
H       -2.45427497      -0.65498947       0.64260836
H       -2.43311707       0.67328779      -0.65473579
C       -0.91132561       0.90220522       0.91563759
C       -0.01476271      -0.02253852       1.78660255
H       -0.67934791      -0.69751639       2.42135241
H        0.63392994       0.61504881       2.47327442
C        0.01484550      -1.77751727      -0.01636693
H        0.67870853      -2.42144646      -0.68295456
H       -0.62264859      -2.45592969       0.64226336
C        1.78714474       0.01002794       0.00389507
H        2.44202412       0.67113390       0.66197326
H        2.45385902      -0.65136977      -0.64189061
C        0.91606151      -0.90478549       0.90901405
