185
Properties=species:S:1:pos:R:3 pbc="F F F"
C        0.00000000       0.00000000       0.00000000
O        5.83082418       1.18261383      -5.44108451
C        5.69970364       1.95393364      -6.38896612
C        4.33590967       2.24298329      -7.02040896
S        2.97951137       2.18405621      -5.80671994
C        3.57965896       3.32906846      -4.65057494
N        4.24991785       4.39906542      -5.01138204
N        4.58028348       5.08408672      -3.88281416
C        4.13837084       4.40995941      -2.83468686
C        4.51446066       4.74138567      -1.45927906
C        4.63638607       6.07919784      -1.06984713
C        5.02621127       6.39625591       0.22976657
C        5.28941484       5.35871056       1.10714497
N        5.20224765       4.05505697       0.76990231
C        4.83667834       3.77831549      -0.50591201
N        3.36203935       3.33104204      -3.28065777
C        2.51930326       2.49227897      -2.48946222
C        2.38847024       1.12419624      -2.75870703
C        1.56653885       0.32248232      -1.95714937
C        0.88129632       0.88129632      -0.88129632
C        1.00131862       2.23892885      -0.60245712
C        1.81214088       3.04475631      -1.40743937
N        6.73085375       2.61264873      -7.04914094
C        8.10101265       2.62466399      -6.71260092
C        8.62527477       2.05888901      -5.54860103
C        9.99839917       2.12430880      -5.28150876
C       10.85287246       2.75254989      -6.18287621
C       10.34653462       3.32319030      -7.34649260
C        8.97343864       3.26391053      -7.60566043
H        4.15405148       1.48542096      -7.78932295
H        4.33256145       3.22544275      -7.50375053
H        4.44021802       6.87900690      -1.78164336
H        5.12979975       7.42844046       0.54521435
H        5.59555184       5.55385601       2.13101941
H        4.82224244       2.71608027      -0.73646715
H        2.95083626       0.63155983      -3.54783506
H        1.48172197      -0.74015779      -2.17395105
H        0.46855630       2.68160519       0.23584722
H        1.85055361       4.10791907      -1.17842693
H        6.48040943       3.15291876      -7.86775129
H        7.99016998       1.57221654      -4.81466673
H       10.38337844       1.68420453      -4.36519973
H       11.00672737       3.81563331      -8.05547452
H        8.60105246       3.71788949      -8.52008253
C       12.26538325       2.81500607      -5.90990641
C       13.44836103       2.86731312      -5.68129421
Br      15.36113605       2.95188919      -5.31164762
O       -3.53471202      -1.93732839      -6.98248210
C       -3.53398970      -3.08419139      -7.42442231
C       -2.40304625      -4.07095285      -7.12530282
S       -1.67690743      -3.81900932      -5.47437076
C       -3.11263768      -3.93792305      -4.50874162
N       -4.08816665      -4.76455752      -4.80764113
N       -5.06167120      -4.61738854      -3.86812462
C       -4.68948616      -3.67566218      -3.01786877
C       -5.59289973      -3.10492494      -2.01730071
C       -6.50823199      -3.92619349      -1.35100555
C       -7.39125025      -3.37916853      -0.42228183
C       -7.33615897      -2.01608761      -0.18873385
N       -6.48260390      -1.18385940      -0.82093901
C       -5.64730411      -1.74288773      -1.73071400
N       -3.37149179      -3.29508173      -3.30716565
C       -2.51462179      -2.48231853      -2.50410412
C       -1.61424553      -1.57727756      -3.07985043
C       -0.79642973      -0.78200008      -2.26774073
C       -0.88129632      -0.88129632      -0.88129632
C       -1.77066712      -1.77644573      -0.29559174
C       -2.58072616      -2.58026334      -1.10334706
N       -4.48796111      -3.62659523      -8.27808707
C       -5.68791329      -3.03032798      -8.72003629
C       -6.17567823      -1.81063516      -8.24645141
C       -7.38394311      -1.29197523      -8.72829839
C       -8.10595941      -1.99121972      -9.69111943
C       -7.63507863      -3.20894186     -10.17219703
C       -6.43252214      -3.72834471      -9.68214275
H       -1.62276492      -3.92670207      -7.87932839
H       -2.75966190      -5.10358189      -7.19851094
H       -6.54489639      -4.99328077      -1.56269113
H       -8.10973832      -4.00202780       0.09874027
H       -8.00261754      -1.54204645       0.52627555
H       -5.01065226      -1.02397143      -2.24016617
H       -1.55637767      -1.41995869      -4.15389479
H       -0.10800762      -0.07772938      -2.72977823
H       -1.84150255      -1.85920236       0.78639065
H       -3.23641342      -3.29318198      -0.60730421
H       -4.31290704      -4.56024747      -8.62792498
H       -5.64887380      -1.24196198      -7.48621748
H       -7.74864870      -0.34472957      -8.33940442
H       -8.19264913      -3.76132720     -10.92385887
H       -6.08562812      -4.68166662     -10.07172975
C       -9.34580272      -1.45476771     -10.18972530
C      -10.38417150      -1.00548916     -10.60730771
Br     -12.06312599      -0.27904374     -11.28250314
O       -4.26210879       6.67293871       1.51947502
C       -5.38323641       6.63747614       2.02189085
C       -6.33092924       5.45379385       1.81457884
S       -5.44445048       3.87109438       1.65474266
C       -4.52645154       3.90709372       3.12575709
N       -5.00767118       4.41634636       4.23634777
N       -4.05162710       4.29794846       5.19760879
C       -2.97714428       3.74655515       4.65931768
C       -1.68734656       3.67930725       5.34847158
C       -1.64032994       3.42253925       6.72256184
C       -0.41562534       3.39075612       7.38631916
C        0.73446321       3.62318377       6.65225986
N        0.73496823       3.89237383       5.32999670
C       -0.47275070       3.93274306       4.71541208
N       -3.27716524       3.34730627       3.34926765
C       -2.48413721       2.51707683       2.49983042
C       -2.41162093       2.74052765       1.11922493
C       -1.61415524       1.91975798       0.31225733
C       -0.88129632       0.88129632       0.88129632
C       -0.94424387       0.64727581       2.25118491
C       -1.74825991       1.45760272       3.05847392
N       -5.96779051       7.64834629       2.77650662
C       -5.37511529       8.85314735       3.21001492
C       -4.02320719       9.16243457       3.04712304
C       -3.50932026      10.37714254       3.51775393
C       -4.34965292      11.28961410       4.14903153
C       -5.69881996      10.99617110       4.32122645
C       -6.20680213       9.77819781       3.85800966
H       -6.89840953       5.63428002       0.89610583
H       -7.04190230       5.37620532       2.64364711
H       -2.55901847       3.25887982       7.28296999
H       -0.36326761       3.19776713       8.45199111
H        1.71323712       3.60830238       7.12332319
H       -0.41907999       4.19410785       3.66160202
H       -2.91567367       3.57544694       0.63911054
H       -1.56166446       2.11117517      -0.75732439
H       -0.37483369      -0.16225032       2.70173090
H       -1.79876420       1.21909524       4.11904017
H       -6.93134075       7.51365160       3.05608714
H       -3.33309323       8.47169694       2.57226308
H       -2.45207487      10.59335922       3.38734861
H       -6.36176750      11.70298979       4.81307790
H       -7.26329476       9.57057419       4.00515553
C       -3.82146039      12.54060689       4.62822846
C       -3.37909913      13.58831335       5.02955588
Br      -2.66383841      15.28236608       5.67846839
O        1.84966081      -6.93792706       3.66693464
C        2.98434736      -7.40988902       3.64836702
C        3.94825398      -7.16616021       2.48488774
S        3.71979434      -5.52838747       1.72210571
C        3.90142183      -4.52959815       3.12828237
N        4.74557592      -4.82502393       4.08976546
N        4.64841605      -3.85719759       5.04157072
C        3.71938418      -2.99221796       4.67141496
C        3.19866396      -1.95399387       5.56246755
C        4.06071188      -1.28628980       6.43842935
C        3.56129942      -0.32101273       7.31038846
C        2.20370276      -0.05302474       7.28425293
N        1.33321258      -0.68478211       6.46940761
C        1.84636891      -1.63021212       5.64432481
N        3.29678967      -3.30519043       3.37175907
C        2.48261127      -2.50325772       2.51517545
C        1.53957411      -3.07787601       1.65392339
C        0.74413441      -2.26635797       0.83567817
C        0.88129632      -0.88129632       0.88129632
C        1.81441420      -0.29674847       1.73154191
C        2.61829536      -1.10434044       2.54170075
N        3.52961351      -8.25274706       4.61028284
C        2.95408193      -8.64775007       5.83644555
C        1.76029906      -8.12970279       6.34276296
C        1.26151454      -8.56641307       7.57628912
C        1.95457556      -9.52846850       8.30525450
C        3.14664236     -10.05351668       7.81605848
C        3.64653140      -9.60847737       6.58800083
H        3.76407308      -7.93594749       1.72877481
H        4.98771854      -7.25742379       2.81661240
H        5.12259226      -1.52508347       6.45319254
H        4.21613211       0.20169250       7.99858625
H        1.76600061       0.69118016       7.94356800
H        1.09800480      -2.13671046       5.04007459
H        1.35318447      -4.14852209       1.62852459
H        0.01025857      -2.72719361       0.17806305
H        1.92683935       0.78413422       1.77160914
H        3.36082368      -0.61059378       3.16548215
H        4.44899895      -8.63152343       4.42055711
H        1.19766347      -7.36852144       5.81086835
H        0.33456157      -8.14336589       7.95485524
H        3.69403479     -10.80490940       8.37889100
H        4.58000928     -10.03191914       6.22709606
C        1.43841408      -9.98064321       9.57123844
C        1.00612884     -10.35933953      10.63150000
Br       0.30716016     -10.97165945      12.34585326
