185
Properties=species:S:1:pos:R:3 pbc="F F F"
C        0.00000000       0.00000000       0.00000000
O        1.69992726       8.07016584      -3.95520009
C        2.38591550       7.33768469      -4.66563930
C        1.74062660       6.26532791      -5.52986603
S        1.38794267       4.76206756      -4.57363806
C        2.98925259       4.12595732      -4.34947012
N        4.03623916       4.59100975      -4.98216716
N        5.14196428       4.10757013      -4.35744077
C        4.77041581       3.29759983      -3.37907624
C        5.75533389       2.59852997      -2.54386645
C        6.92495732       3.28390627      -2.19129218
C        7.87591998       2.64219242      -1.41763148
N        7.73827524       1.37857141      -0.97204719
C        6.62312028       0.71878333      -1.34466490
C        5.62600707       1.27040827      -2.13523487
N        3.36972031       3.23529214      -3.35246239
C        2.52028884       2.46813272      -2.50388463
C        2.81999349       2.30439378      -1.14511618
C        2.00366507       1.50486129      -0.33736316
C        0.88099266       0.88099266      -0.88099266
C        0.56228094       1.05395939      -2.22525840
C        1.38021059       1.84469118      -3.03703730
N        3.76774815       7.38196150      -4.77421609
C        4.62475082       8.36495835      -4.23972504
C        4.17598251       9.60511451      -3.77897007
C        5.07780679      10.54045528      -3.26211592
C        6.43559212      10.23779842      -3.20814979
C        6.90021766       9.01256495      -3.68156641
C        5.99621521       8.08198074      -4.20378838
H        2.35450859       6.04247658      -6.40827610
H        0.79380777       6.67008033      -5.90267829
H        7.10160479       4.30473352      -2.52257442
H        8.79709588       3.14218934      -1.13218465
H        6.54980630      -0.30254313      -0.98234777
H        4.77658987       0.65661654      -2.41619100
H        3.66433074       2.80638252      -0.67873231
H        2.24785802       1.37927837       0.71472344
H       -0.31340169       0.57181925      -2.65291042
H        1.12348587       1.92168486      -4.09184300
H        4.21660293       6.53701502      -5.13217731
H        3.12678000       9.88050006      -3.82158118
H        4.70623671      11.49914118      -2.90859836
H        7.95933852       8.77252391      -3.64620389
H        6.37542051       7.12903340      -4.56644366
C        7.36159346      11.19486329      -2.66029183
C        8.13711958      11.99640512      -2.20146078
Br       9.39107973      13.29243047      -1.45956979
O       -1.57083776      -4.16306831      -7.99138712
C       -2.71328426      -4.13848905      -7.53746618
C       -3.42541769      -2.81690700      -7.29349585
S       -2.93670135      -2.07972717      -5.70721977
C       -3.74409664      -3.13397166      -4.58661174
N       -4.63373008      -4.02004885      -4.95563716
N       -4.82318659      -4.87075713      -3.91303146
C       -4.09374951      -4.46868786      -2.88465452
C       -4.11875345      -5.17919358      -1.59978328
C       -4.20115433      -6.57733502      -1.62166641
C       -4.24166270      -7.26974641      -0.42433476
N       -4.20049265      -6.66881237       0.78041118
C       -4.15349075      -5.32142128       0.78834353
C       -4.13157074      -4.54167241      -0.35840706
N       -3.39708061      -3.30840508      -3.25198915
C       -2.52301943      -2.49948766      -2.46979910
C       -1.61842047      -3.07996637      -1.57111661
C       -0.80388695      -2.26932310      -0.77267947
C       -0.88099266      -0.88099266      -0.88099266
C       -1.76155222      -0.29411461      -1.78583189
C       -2.58285787      -1.10045725      -2.57862394
N       -3.47272118      -5.24928750      -7.20191706
C       -3.16082398      -6.59703423      -7.47157599
C       -2.18247530      -6.98904366      -8.38854813
C       -1.92178562      -8.34414428      -8.61444808
C       -2.64407759      -9.31349046      -7.92397228
C       -3.63597583      -8.93785866      -7.02051454
C       -3.89848141      -7.58169432      -6.80180859
H       -4.51168321      -2.93465471      -7.35892335
H       -3.13434493      -2.13379475      -8.09842672
H       -4.24355470      -7.12479058      -2.56056745
H       -4.31250211      -8.35356612      -0.40540164
H       -4.13725424      -4.86719435       1.77483764
H       -4.12767587      -3.46111408      -0.26060746
H       -1.50361265      -4.15805961      -1.48777330
H       -0.10910577      -2.72923305      -0.07407412
H       -1.82325832       0.78767702      -1.87574668
H       -3.28859183      -0.60545007      -3.24297184
H       -4.24598327      -5.08486719      -6.55494479
H       -1.61229934      -6.26029539      -8.95626650
H       -1.15542882      -8.62633771      -9.33220972
H       -4.20607576      -9.68994909      -6.48204146
H       -4.67427749      -7.30573360      -6.09088646
C       -2.36350414     -10.70853686      -8.14470757
C       -2.12852388     -11.87688823      -8.32957338
Br      -1.74858067     -13.76601356      -8.62848576
O       -6.34279240       6.53547812       0.84702267
C       -5.83798290       6.58413003       1.96712656
C       -4.38645247       7.00028703       2.14908104
S       -3.25366449       5.61051527       1.85946853
C       -3.53225453       4.65124412       3.28118137
N       -4.21718009       5.08272530       4.30951069
N       -4.51273906       4.00774807       5.08648805
C       -3.95625304       2.92660428       4.56423457
C       -4.07861678       1.61202885       5.20708467
C       -5.29789947       1.28705277       5.81520352
C       -5.43402883       0.06054745       6.44116760
N       -4.44869978      -0.85613843       6.49633249
C       -3.27004958      -0.51880828       5.93532721
C       -3.03231428       0.69378690       5.30554903
N       -3.26270296       3.29298737       3.40178451
C       -2.48166132       2.48241733       2.52822754
C       -2.88899999       1.18346662       2.19703684
C       -2.08412945       0.38208134       1.37967873
C       -0.88099266       0.88099266       0.88099266
C       -0.47686234       2.17778691       1.18684947
C       -1.27393250       2.97797313       2.01003343
N       -6.48331294       6.28339457       3.15721822
C       -7.86017745       6.03781739       3.33143936
C       -8.82414800       6.36219378       2.37372531
C      -10.17677717       6.09587501       2.60772581
C      -10.56993627       5.50581666       3.80578741
C       -9.62199567       5.19419790       4.77815546
C       -8.27072527       5.46785015       4.54340890
H       -4.22335688       7.44689084       3.13501355
H       -4.17400788       7.78122868       1.41132984
H       -6.13280514       1.98416282       5.81194476
H       -6.36342754      -0.22032953       6.92837187
H       -2.49189263      -1.27284277       6.01056108
H       -2.04258266       0.89676312       4.91005163
H       -3.83835957       0.77544905       2.53563695
H       -2.40615618      -0.62674904       1.13300581
H        0.45892700       2.57203455       0.79822043
H       -0.90474366       3.97027674       2.26199334
H       -5.87976641       6.05648247       3.94954637
H       -8.55470759       6.83815864       1.43599500
H      -10.90973508       6.35620024       1.84804093
H       -9.92336464       4.73771383       5.71698783
H       -7.54337226       5.21553429       5.31199101
C      -11.96114263       5.21649696       4.03910899
C      -13.12627797       4.97419172       4.23451581
Br     -15.01020325       4.58240463       4.55047211
O        5.85841154      -0.90061723       6.96626441
C        6.09896034      -1.93825058       6.35202857
C        6.69022079      -1.89417943       4.95142031
S        5.40741443      -1.62116579       3.69506807
C        4.60523768      -3.16246061       3.69698173
N        5.08230338      -4.21378869       4.31332402
N        4.08501659      -5.13381362       4.38814497
C        3.01519799      -4.66835808       3.76353581
C        1.78400917      -5.46097268       3.65274846
C        1.40499890      -6.24593546       4.74922141
C        0.25710960      -7.01397043       4.66466385
N       -0.53281718      -7.04751494       3.57419609
C       -0.14027350      -6.31266412       2.51417788
C        1.00451606      -5.52991578       2.49721837
N        3.30964447      -3.39659064       3.25123973
C        2.48812175      -2.52751272       2.47667172
C        1.12170650      -2.39257991       2.75521704
C        0.31874139      -1.57501098       1.95213715
C        0.88099266      -0.88099266       0.88099266
C        2.24182155      -0.99156467       0.60811250
C        3.04517019      -1.81405395       1.40271493
N        5.87792521      -3.22420165       6.82179888
C        5.50678808      -3.59183131       8.13081481
C        5.60401688      -2.73001834       9.22603188
C        5.22240115      -3.15590523      10.50207160
C        4.74447252      -4.45034877      10.68671904
C        4.65987693      -5.32719158       9.60728052
C        5.04848670      -4.89993511       8.33356251
H        7.26955641      -2.79796527       4.73773958
H        7.39320713      -1.05513992       4.91821935
H        2.00111906      -6.26909724       5.65869642
H       -0.06160038      -7.63927231       5.49379794
H       -0.78990596      -6.37367734       1.64583957
H        1.26422240      -4.99617369       1.58900132
H        0.65716677      -2.88762163       3.60465717
H       -0.74180960      -1.48131406       2.17290848
H        2.68515759      -0.45034161      -0.22417122
H        4.09521506      -1.90898203       1.13281664
H        5.81720304      -3.95646873       6.11212349
H        5.98784650      -1.72000663       9.12100809
H        5.30596442      -2.46807295      11.33993888
H        4.29191404      -6.34008252       9.74606976
H        4.97330419      -5.59635749       7.50123589
C        4.33587444      -4.88281062      11.99806353
C        3.99367354      -5.24499741      13.09631453
Br       3.44036364      -5.83062283      14.87209352
