198
Properties=species:S:1:pos:R:3 pbc="F F F"
O        2.60983129       8.98006986      -4.86510411
C        3.29581952       8.24758871      -5.57554333
C        2.65053062       7.17523193      -6.43977005
S        2.29784670       5.67197158      -5.48354209
C        3.89915661       5.03586135      -5.25937415
N        4.94614319       5.50091378      -5.89207119
N        6.05186831       5.01747415      -5.26734479
C        5.68031983       4.20750386      -4.28898027
C        6.66523791       3.50843400      -3.45377048
C        7.83486134       4.19381029      -3.10119620
C        8.78582401       3.55209644      -2.32753550
N        8.64817927       2.28847543      -1.88195122
C        7.53302430       1.62868735      -2.25456892
C        6.53591109       2.18031230      -3.04513889
N        4.27962434       4.14519616      -4.26236641
C        3.43019287       3.37803674      -3.41378865
C        3.72989752       3.21429781      -2.05502020
C        2.91356910       2.41476531      -1.24726718
C        1.79089668       1.79089668      -1.79089668
C        1.47218496       1.96386341      -3.13516242
C        2.29011461       2.75459520      -3.94694133
N        4.67765217       8.29186552      -5.68412011
C        5.53465484       9.27486237      -5.14962906
C        5.08588653      10.51501854      -4.68887409
C        5.98771081      11.45035930      -4.17201995
C        7.34549614      11.14770245      -4.11805381
Br       8.56064291      12.40361238      -3.39912631
C        7.81012169       9.92246898      -4.59147044
C        6.90611923       8.99188477      -5.11369240
H        3.26441261       6.95238061      -7.31818012
H        1.70371180       7.57998436      -6.81258232
H        8.01150881       5.21463754      -3.43247845
H        9.70699991       4.05209336      -2.04208868
H        7.45971033       0.60736089      -1.89225179
H        5.68649389       1.56652056      -3.32609502
H        4.57423476       3.71628654      -1.58863633
H        3.15776204       2.28918239      -0.19518058
H        0.59650233       1.48172327      -3.56281444
H        2.03338990       2.83158889      -5.00174702
H        5.12650695       7.44691904      -6.04208133
H        4.03668402      10.79040408      -4.73148520
H        5.61614074      12.40904520      -3.81850238
H        8.86924254       9.68242793      -4.55610791
H        7.28532453       8.03893742      -5.47634768
O       -8.67351995      -2.21497314      -5.56651217
C       -8.31457329      -3.38210043      -5.42227784
C       -8.22543202      -4.00326322      -4.03683737
S       -6.66380740      -3.57540195      -3.21415102
C       -5.53636056      -4.54383528      -4.11419626
N       -5.90869158      -5.47139007      -4.95904650
N       -4.82476748      -5.80364837      -5.70827140
C       -3.77411599      -5.12208535      -5.28060262
C       -2.44660191      -5.29752245      -5.88331803
C       -2.37228766      -5.48861029      -7.26896989
C       -1.13435742      -5.67160373      -7.85949480
N        0.02250722      -5.67146880      -7.16964433
C       -0.06475674      -5.51857014      -5.83295369
C       -1.26028346      -5.35084834      -5.15023049
N       -4.16924887      -4.31060594      -4.20733211
C       -3.38174117      -3.43496444      -3.40531266
C       -2.37404653      -2.64759394      -3.97757505
C       -1.57522978      -1.83218746      -3.16818435
C       -1.79089668      -1.79089668      -1.79089668
C       -2.80327702      -2.55340955      -1.21452423
C       -3.59733383      -3.37562207      -2.01869524
N       -7.95964439      -4.24972766      -6.44426575
C       -8.10411473      -4.02664838      -7.82838316
C       -8.90944336      -3.01779120      -8.36254460
C       -9.01392815      -2.84941373      -9.74674818
C       -8.31358528      -3.69495112     -10.60271600
Br      -8.43804403      -3.45270807     -12.47262950
C       -7.52156372      -4.71758450     -10.08491288
C       -7.42445279      -4.88715507      -8.70008853
H       -8.36790111      -5.08770397      -4.07936826
H       -9.05272173      -3.60070256      -3.44285418
H       -3.26888393      -5.50523940      -7.88450147
H       -1.04161508      -5.82928918      -8.93027769
H        0.88392260      -5.53883084      -5.30441477
H       -1.24204044      -5.26854036      -4.06852868
H       -2.20298208      -2.62499069      -5.05118486
H       -0.79191358      -1.22917303      -3.62103841
H       -2.97693866      -2.52244638      -0.14165501
H       -4.35003621      -3.98925834      -1.52743126
H       -7.38978673      -5.05291646      -6.17280414
H       -9.48214337      -2.35155093      -7.72487901
H       -9.64606590      -2.05722635     -10.14039607
H       -6.97621906      -5.38345252     -10.74810680
H       -6.79940506      -5.68871845      -8.31248612
O       -8.67971546       2.22074870       5.55454110
C       -8.31834123       3.38747316       5.41313717
C       -8.22547980       4.01103392       4.02901890
S       -6.66312660       3.58180043       3.20843333
C       -5.53556009       4.54647217       4.11235984
N       -5.90773959       5.47315007       4.95823849
N       -4.82459390       5.80200899       5.71008437
C       -3.77441470       5.11929110       5.28309816
C       -2.44769845       5.29114875       5.88859518
C       -2.37560125       5.47953219       7.27473440
C       -1.13843193       5.65913493       7.86788909
N        0.01970828       5.65813124       7.18018295
C       -0.06535871       5.50787020       5.84305166
C       -1.25992533       5.34363111       5.15780585
N       -4.16905776       4.31053493       4.20759422
C       -3.38168634       3.43492060       3.40541132
C       -2.37651482       2.64462369       3.97807702
C       -1.57770917       1.82923684       3.16865557
C       -1.79089668       1.79089668       1.79089668
C       -2.80079229       2.55635237       1.21406614
C       -3.59481573       3.37854606       2.01828935
N       -7.96370290       4.25254650       6.43738841
C       -8.11115361       4.02717297       7.82081969
C       -8.91933858       3.01882416       8.35161643
C       -9.02670275       2.84807792       9.73530940
C       -8.32638454       3.69072811      10.59413976
Br      -8.45476045       3.44525419      12.46336697
C       -7.53151143       4.71284747      10.07970220
C       -7.43151774       4.88480164       8.69537701
H       -8.36601920       5.09565649       4.07329765
H       -9.05241017       3.61110931       3.43275899
H       -3.27330556       5.49668479       7.88863445
H       -1.04738440       5.81466497       8.93913257
H        0.88433541       5.52734958       5.31630885
H       -1.23982804       5.26329260       4.07598884
H       -2.20748455       2.61971511       5.05195798
H       -0.79635241       1.22393273       3.62183988
H       -2.97252031       2.52769815       0.14082159
H       -4.34546785       3.99448631       1.52677165
H       -7.39185629       5.05517802       6.16847301
H       -9.49208734       2.35482942       7.71165654
H       -9.66103553       2.05633705      10.12631574
H       -6.98616597       5.37647344      10.74513898
H       -6.80426880       5.68592044       8.31042040
O        3.09165766      -9.15899447       4.20435313
C        3.61781904      -8.44510528       5.05602724
C        2.77455291      -7.54501900       5.94596071
S        2.35441615      -5.98767192       5.11127229
C        3.88958342      -5.17406077       5.13074792
N        4.91333109      -5.59965975       5.82613731
N        6.01536138      -4.94200608       5.37931979
C        5.65570427      -4.06961384       4.45148585
C        6.63535256      -3.18744131       3.80464851
C        7.90310260      -3.70934163       3.51742361
C        8.84939936      -2.89409972       2.92195688
N        8.61754138      -1.60891567       2.59214887
C        7.40448966      -1.10910720       2.90268371
C        6.40087620      -1.84174893       3.51873715
N        4.26643041      -4.14478614       4.27597036
C        3.42604235      -3.37680045       3.41917546
C        3.83977692      -3.03423209       2.12520651
C        3.02445661      -2.23546307       1.31568191
C        1.79089668      -1.79089668       1.79089668
C        1.36083850      -2.14287655       3.06749574
C        2.17636399      -2.93323034       3.88205680
N        4.97826383      -8.36308000       5.31229397
C        5.98806378      -9.19027194       4.78081056
C        5.72788746     -10.41019154       4.15170016
C        6.77496006     -11.18774633       3.64738367
C        8.08934791     -10.74703500       3.77486949
Br       9.50196371     -11.78789161       3.07352628
C        8.36559657      -9.54169399       4.41677055
C        7.31636244      -8.76965540       4.92567856
H        3.26920466      -7.36088539       6.90488329
H        1.84605056      -8.08106223       6.16916568
H        8.15799023      -4.73787640       3.76275817
H        9.84421742      -3.26492956       2.69203497
H        7.25481947      -0.06632661       2.63817694
H        5.46483532      -1.35074112       3.76353303
H        4.77688805      -3.39462095       1.70764864
H        3.35693951      -1.97018968       0.31499583
H        0.39879914      -1.80094363       3.44129727
H        1.82582709      -3.15201031       4.88888840
H        5.29263137      -7.52253172       5.80034423
H        4.71673490     -10.79189225       4.04994615
H        6.54918883     -12.13354379       3.16095571
H        9.38975499      -9.19475692       4.52326647
H        7.54940857      -7.82978444       5.42141663
C       -0.00445707       0.01189536      -1.78238275
H       -0.66409135       0.67374010      -2.43557963
H        0.65740317      -0.63156657      -2.45157240
C       -0.90989263      -0.90692880      -0.91072765
C        0.90977584       0.90977584      -0.90977584
C       -0.00465871       1.77757030       0.00794375
H       -0.66225468       2.44313916      -0.64384735
H        0.64322798       2.43503045       0.67728295
C       -1.78241447       0.00034974      -0.00472694
H       -2.45427497      -0.65498947       0.64260836
H       -2.43311707       0.67328779      -0.65473579
C       -0.91132561       0.90220522       0.91563759
C       -0.01476271      -0.02253852       1.78660255
H       -0.67934791      -0.69751639       2.42135241
H        0.63392994       0.61504881       2.47327442
C        0.01484550      -1.77751727      -0.01636693
H        0.67870853      -2.42144646      -0.68295456
H       -0.62264859      -2.45592969       0.64226336
C        1.78714474       0.01002794       0.00389507
H        2.44202412       0.67113390       0.66197326
H        2.45385902      -0.65136977      -0.64189061
C        0.91606151      -0.90478549       0.90901405
