78
Properties=species:S:1:pos:R:3 pbc="F F F"
C        1.82173222       1.82173222      -1.82173222
C        1.72622527       1.35953953      -3.24480868
C        0.74285843       1.88012748      -4.09943695
C        0.64517909       1.44136701      -5.42161742
C        1.52592421       0.47384007      -5.90381417
C        2.49958834      -0.05314809      -5.05828639
Br       3.69069993      -1.37041759      -5.70811704
C        2.60299133       0.38068582      -3.73628761
H        2.84414196       1.75134020      -1.43633753
H        1.47551283       2.85354466      -1.70258658
H        0.04063771       2.62941678      -3.73805812
H       -0.12142347       1.85106526      -6.07483757
H        1.44184530       0.13609733      -6.93329558
H        3.36245916      -0.04551925      -3.08488722
C       -1.82173222      -1.82173222      -1.82173222
C       -3.06613410      -2.19236442      -1.07207496
C       -4.20706935      -1.37843921      -1.13691430
C       -5.36264666      -1.71623721      -0.42927966
C       -5.39001403      -2.86872770       0.35516329
C       -4.25799052      -3.67713251       0.43039639
Br      -4.29057146      -5.23694218       1.49911427
C       -3.10015371      -3.34578664      -0.27402441
H       -1.23230277      -2.70237210      -2.09714481
H       -2.04557664      -1.25482448      -2.73124294
H       -4.20134171      -0.46999320      -1.73677770
H       -6.24078072      -1.07758318      -0.48611546
H       -6.29240313      -3.12337834       0.90454327
H       -2.22092553      -3.98151577      -0.19938583
C       -1.82173222       1.82173222       1.82173222
C       -3.00798972       2.28946432       1.03311944
C       -4.18822409       1.53148410       1.00271466
C       -5.28953646       1.96001366       0.25861341
C       -5.22267390       3.14849592      -0.46759137
C       -4.05107292       3.90191007      -0.44825636
Br      -3.95577944       5.51054390      -1.43792397
C       -2.94703822       3.47985730       0.29306924
H       -1.20553211       2.65765138       2.16863618
H       -2.11756277       1.22404406       2.69003724
H       -4.25581073       0.59634063       1.55596125
H       -6.19884601       1.36411726       0.24151610
H       -6.08328352       3.47386756      -1.04591288
H       -2.03588572       4.07362931       0.29231210
C        1.82173222      -1.82173222       1.82173222
C        2.16899135      -1.08252296       3.07905917
C        1.34265636      -1.17027287       4.20949363
C        1.65861518      -0.47241631       5.37713203
C        2.80138699       0.32501649       5.42720795
C        3.62197610       0.42298945       4.30573998
Br       5.16860131       1.50933968       4.36913775
C        3.31245697      -0.27155195       3.13595583
H        2.71235951      -2.07990827       1.23955190
H        1.26301114      -2.74035659       2.02827633
H        0.44146897      -1.78056467       4.18607897
H        1.01049317      -0.54702668       6.24695951
H        3.03902252       0.86665484       6.33887052
H        3.95745750      -0.17916241       2.26520723
C       -0.00445707       0.01189536      -1.78238275
H       -0.66409135       0.67374010      -2.43557963
H        0.65740317      -0.63156657      -2.45157240
C       -0.90989263      -0.90692880      -0.91072765
C        0.90977584       0.90977584      -0.90977584
C       -0.00465871       1.77757030       0.00794375
H       -0.66225468       2.44313916      -0.64384735
H        0.64322798       2.43503045       0.67728295
C       -1.78241447       0.00034974      -0.00472694
H       -2.45427497      -0.65498947       0.64260836
H       -2.43311707       0.67328779      -0.65473579
C       -0.91132561       0.90220522       0.91563759
C       -0.01476271      -0.02253852       1.78660255
H       -0.67934791      -0.69751639       2.42135241
H        0.63392994       0.61504881       2.47327442
C        0.01484550      -1.77751727      -0.01636693
H        0.67870853      -2.42144646      -0.68295456
H       -0.62264859      -2.45592969       0.64226336
C        1.78714474       0.01002794       0.00389507
H        2.44202412       0.67113390       0.66197326
H        2.45385902      -0.65136977      -0.64189061
C        0.91606151      -0.90478549       0.90901405
