65
Properties=species:S:1:pos:R:3 pbc="F F F"
C        0.00000000       0.00000000       0.00000000
C        0.91182819       0.91182819      -0.91182819
C        0.81632125       0.44963550      -2.33490466
C       -0.16704560       0.97022345      -3.18953293
C       -0.26472493       0.53146299      -4.51171339
C        0.61602018      -0.43606395      -4.99391015
C        1.58968431      -0.96305212      -4.14838236
C        1.69308730      -0.52921820      -2.82638359
H        1.93423793       0.84143617      -0.52643350
H        0.56560880       1.94364063      -0.79268255
H       -0.86926632       1.71951276      -2.82815410
H       -1.03132749       0.94116124      -5.16493354
H        0.53194127      -0.77380670      -6.02339155
H        2.45255514      -0.95542327      -2.17498319
C        2.49667429      -1.96610695      -4.64320576
C        3.25627840      -2.80616536      -5.05762036
Br       4.48449399      -4.16446877      -5.72769371
C       -0.91182819      -0.91182819      -0.91182819
C       -2.34943454      -0.71913442      -0.53229244
C       -3.12228219       0.27713711      -1.14756571
C       -4.45795784       0.46559015      -0.78608376
C       -5.03554162      -0.33611271       0.19778795
C       -4.27157426      -1.32189983       0.81845954
C       -2.93663887      -1.51578664       0.46217282
H       -0.58605565      -1.94730227      -0.76874968
H       -0.72175678      -0.62811594      -1.95205926
H       -2.68591613       0.91870400      -1.91118841
H       -5.04726302       1.24138075      -1.26888501
H       -6.07490103      -0.18158625       0.47496115
H       -2.34960693      -2.28348180       0.96097367
C       -4.86497352      -2.14722102       1.83842143
C       -5.36194540      -2.83842751       2.69263951
Br      -6.16550689      -3.95604995       4.07383791
C       -0.91182819       0.91182819       0.91182819
C       -0.06979851       1.96709757       1.56396532
C        0.14179026       3.20197607       0.93252497
C        0.93594145       4.18100921       1.53338368
C        1.53179049       3.93569725       2.76995961
C        1.33240212       2.70868864       3.39872804
C        0.54011440       1.72609907       2.80426802
H       -1.39397066       0.26024719       1.64788975
H       -1.68642006       1.34489926       0.27061267
H       -0.30770170       3.40803888      -0.03734005
H        1.09386923       5.13411962       1.03451690
H        2.15019277       4.70192087       3.22979802
H        0.39992469       0.76958421       3.30245554
C        1.95127227       2.45173029       4.67331508
C        2.46957602       2.23652767       5.74078174
Br       3.30762935       1.88856324       7.46678503
C        0.91182819      -0.91182819       0.91182819
C        1.48704648      -2.02513219       0.08868274
C        2.71037052      -1.86060677      -0.57826651
C        3.24107724      -2.89256899      -1.35519478
C        2.55323818      -4.09921172      -1.47858353
C        1.33413300      -4.26640798      -0.82552643
C        0.79811671      -3.23972312      -0.04758714
H        0.28638976      -1.28748733       1.72823052
H        1.69204286      -0.27244230       1.33744683
H        3.25712733      -0.92239135      -0.50111814
H        4.18950695      -2.75370654      -1.86844620
H        2.97189634      -4.89650549      -2.08687571
H       -0.15865607      -3.38096340       0.44980773
C        0.61993061      -5.50997430      -0.95613181
C        0.02178611      -6.55146109      -1.06551381
Br      -0.94536296      -8.23545714      -1.24237526
