130
Properties=species:S:1:pos:R:3 pbc="F F F"
C        1.79120254       1.79120254      -1.79120254
C        1.88947230       3.15403672      -1.52903582
C        2.69761565       3.95777187      -2.33907067
C        3.41053318       3.40773062      -3.41463403
C        3.30056801       2.03791746      -3.66368783
C        2.49293333       1.22989160      -2.85391095
N        4.19561087       4.29468905      -4.18127230
C        4.97652107       4.00173676      -5.29276931
O        5.11583318       2.88642979      -5.77687771
N        5.56942781       5.16004393      -5.78028256
C        6.41222501       5.29670854      -6.90481468
C        6.82029106       4.23456514      -7.71473016
C        7.64934602       4.45900707      -8.81985303
C        8.07885041       5.74810415      -9.12607862
C        7.67823033       6.80872357      -8.32020263
Br       8.25288944       8.56421521      -8.72646969
C        6.85271046       6.59054364      -7.21526751
H        1.34421054       3.60054395      -0.70190534
H        2.75728986       5.01976172      -2.11526297
H        3.83015078       1.56074963      -4.48234662
H        2.42291064       0.16633056      -3.06709841
H        4.18047939       5.25615693      -3.88196279
H        5.35988839       6.01368375      -5.28848244
H        6.51162110       3.21257367      -7.51643533
H        7.95603581       3.62056219      -9.44086591
H        8.71963829       5.91198307      -9.98811935
H        6.55312072       7.43662459      -6.60339475
C       -1.79120254      -1.79120254      -1.79120254
C       -2.51183426      -1.22350736      -2.83720322
C       -3.31822373      -2.03440322      -3.64183125
C       -3.41131502      -3.41425021      -3.40733260
C       -2.68126119      -3.96771647      -2.35319564
C       -1.87195898      -3.15875821      -1.54601869
N       -4.25347103      -4.15286772      -4.26523346
C       -4.52191286      -5.51594450      -4.23316978
O       -4.03537665      -6.30729287      -3.43647115
N       -5.42957947      -5.84893658      -5.23123826
C       -5.97751442      -7.11822177      -5.51801203
C       -5.65075100      -8.28887801      -4.82995735
C       -6.25013625      -9.50674979      -5.17132008
C       -7.18236367      -9.56617978      -6.20448974
C       -7.50825565      -8.40364619      -6.89525468
Br      -8.77413792      -8.47057962      -8.29885680
C       -6.91206546      -7.18612909      -6.56032706
H       -2.45520912      -0.15649654      -3.03495417
H       -3.87263678      -1.56771950      -4.45195827
H       -2.71675636      -5.02893158      -2.12755909
H       -1.31297675      -3.61198454      -0.73137832
H       -4.71516911      -3.61947417      -4.98395583
H       -5.75688638      -5.09358912      -5.81157907
H       -4.93018727      -8.29278909      -4.01765374
H       -5.98534075     -10.40831487      -4.62380828
H       -7.64427920     -10.51603209      -6.45942941
H       -7.18566001      -6.29287005      -7.11461000
C       -1.79120254       1.79120254       1.79120254
C       -1.60151159       3.16946786       1.80156540
C       -2.41078908       3.97304176       2.61062735
C       -3.41184909       3.40713767       3.41391107
C       -3.58875561       2.02196331       3.39145438
C       -2.78074745       1.21431404       2.58167439
N       -4.17590244       4.29354573       4.20212404
C       -5.20637725       3.98334264       5.08130725
O       -5.62875712       2.85489278       5.29549077
N       -5.68197834       5.13911354       5.68866243
C       -6.70208814       5.25354513       6.65811496
C       -7.44141291       4.17637194       7.15180152
C       -8.42943871       4.37588221       8.12288521
C       -8.68818481       5.65487022       8.60997816
C       -7.95712470       6.73141903       8.11861280
Br      -8.29740767       8.47286170       8.77330497
C       -6.97148554       6.53863893       7.14839714
H       -0.83057575       3.62793974       1.18814433
H       -2.24267347       5.04688925       2.60275182
H       -4.34802682       1.53215100       3.99306920
H       -2.93697356       0.13862510       2.58074096
H       -3.93718985       5.26791557       4.11349369
H       -5.23460070       6.00221154       5.42524233
H       -7.27610153       3.16140313       6.80312543
H       -8.99441541       3.52550641       8.49754208
H       -9.45508363       5.79849205       9.36616503
H       -6.41393689       7.39628627       6.78291689
C        1.79120254      -1.79120254       1.79120254
C        2.50491417      -1.22492749       2.84270318
C        3.31133050      -2.03581571       3.64731198
C        3.41134464      -3.41423306       3.40732013
C        2.68818478      -3.96628480       2.34770373
C        1.87887496      -3.15733565       1.54052526
N        4.25298897      -4.15292005       4.26566319
C        4.52741330      -5.51468697       4.22892688
O        4.04768738      -6.30468066       3.42677263
N        5.43222702      -5.84807760       5.22944969
C        5.98437418      -7.11622864       5.51314541
C        5.66558180      -8.28530673       4.81869783
C        6.26872434      -9.50205972       5.15742206
C        7.19677428      -9.56193897       6.19431994
C        7.51471850      -8.40099874       6.89143929
Br       8.77486625      -8.46854526       8.30016284
C        6.91474499      -7.18461439       6.55916224
H        2.44286527      -0.15902700       3.04476756
H        3.86026811      -1.57024825       4.46179819
H        2.72919839      -5.02636030       2.11768834
H        1.32532979      -3.60944612       0.72156371
H        4.70931761      -3.62064792       4.98863357
H        5.75380573      -5.09383603       5.81441281
H        4.94851963      -8.28881077       4.00329971
H        6.01014316     -10.40238998       4.60493076
H        7.66166861     -10.51089398       6.44717812
H        7.18213175      -6.29258148       7.11842682
C       -0.00445707       0.01189536      -1.78238275
H       -0.66409135       0.67374010      -2.43557963
H        0.65740317      -0.63156657      -2.45157240
C       -0.90989263      -0.90692880      -0.91072765
C        0.90977584       0.90977584      -0.90977584
C       -0.00465871       1.77757030       0.00794375
H       -0.66225468       2.44313916      -0.64384735
H        0.64322798       2.43503045       0.67728295
C       -1.78241447       0.00034974      -0.00472694
H       -2.45427497      -0.65498947       0.64260836
H       -2.43311707       0.67328779      -0.65473579
C       -0.91132561       0.90220522       0.91563759
C       -0.01476271      -0.02253852       1.78660255
H       -0.67934791      -0.69751639       2.42135241
H        0.63392994       0.61504881       2.47327442
C        0.01484550      -1.77751727      -0.01636693
H        0.67870853      -2.42144646      -0.68295456
H       -0.62264859      -2.45592969       0.64226336
C        1.78714474       0.01002794       0.00389507
H        2.44202412       0.67113390       0.66197326
H        2.45385902      -0.65136977      -0.64189061
C        0.91606151      -0.90478549       0.90901405
