117
Properties=species:S:1:pos:R:3 pbc="F F F"
C        0.00000000       0.00000000       0.00000000
C        0.88129851       0.88129851      -0.88129851
C        0.97956828       2.24413269      -0.61913180
C        1.78771162       3.04786785      -1.42916665
C        2.50062916       2.49782660      -2.50473000
C        2.39066399       1.12801344      -2.75378380
C        1.58302930       0.31998758      -1.94400692
N        3.28570685       3.38478502      -3.27136827
C        4.06661704       3.09183274      -4.38286529
O        4.20592915       1.97652577      -4.86697368
N        4.65952379       4.25013991      -4.87037854
C        5.50232098       4.38680452      -5.99491065
C        5.91038704       3.32466111      -6.80482614
C        6.73944200       3.54910304      -7.90994900
C        7.16894639       4.83820013      -8.21617460
C        6.76832631       5.89881955      -7.41029860
C        5.94280644       5.68063962      -6.30536349
H        0.43430652       2.69063992       0.20799869
H        1.84738583       4.10985769      -1.20535895
H        2.92024676       0.65084560      -3.57244259
H        1.51300662      -0.74357346      -2.15719439
H        3.27057537       4.34625290      -2.97205876
H        4.44998437       5.10377972      -4.37857841
H        5.60171708       2.30266965      -6.60653130
H        7.04613178       2.71065816      -8.53096188
H        7.80973427       5.00207904      -9.07821532
H        5.64321669       6.52672057      -5.69349072
C        7.20585957       7.23541367      -7.71962174
C        7.57229367       8.35481124      -7.97867986
Br       8.16478663      10.16478245      -8.39755493
C       -0.88129851      -0.88129851      -0.88129851
C       -1.57451460      -0.31951810      -1.94880006
C       -2.38101041      -1.13038265      -2.75335306
C       -2.50152778      -2.50427746      -2.49738052
C       -1.79878610      -3.05185224      -1.42182289
C       -0.98945413      -2.24293011      -0.61463957
N       -3.34165487      -3.24319297      -3.35701230
C       -3.63379374      -4.60083418      -3.30668715
O       -3.17424028      -5.38652999      -2.48865833
N       -4.53014864      -4.93553159      -4.31436201
C       -5.09475781      -6.20015860      -4.58911975
C       -4.79957651      -7.36422794      -3.87606983
C       -5.41382985      -8.57752444      -4.20713975
C       -6.32948681      -8.63892464      -5.25490966
C       -6.62388994      -7.48303645      -5.97051807
C       -6.01272894      -6.27015066      -5.64592994
H       -1.49640180       0.74286760      -2.16341355
H       -2.91373078      -0.66834992      -3.58052178
H       -1.85614356      -4.10832268      -1.17906871
H       -0.45201212      -2.69150894       0.21689353
H       -3.78208162      -2.71446531      -4.09234010
H       -4.83475843      -4.18480702      -4.91277705
H       -4.09290056      -7.36636807      -3.05164940
H       -5.17365592      -9.47393672      -3.64015919
H       -6.80318934      -9.58510919      -5.50173010
H       -6.26172750      -5.38201001      -6.21969048
C       -7.57038694      -7.53604653      -7.05446150
C       -8.36307817      -7.58044248      -7.96226413
Br      -9.64479286      -7.65222697      -9.43010419
C       -0.88129851       0.88129851       0.88129851
C       -0.80431936       0.77233026       2.26618315
C       -1.61369737       1.58128580       3.06976296
C       -2.50426085       2.50155526       2.49736964
C       -2.56881908       2.59804484       1.10559731
C       -1.75902500       1.79015565       0.29784316
N       -3.28563037       3.27143513       3.38479465
C       -4.23943102       4.23179540       3.07008865
O       -4.54003607       4.57490532       1.93448721
N       -4.80875174       4.73992700       4.23136350
C       -5.82844378       5.70982182       4.34577056
C       -6.42336226       6.35639534       3.26011669
C       -7.43809804       7.29920042       3.46119559
C       -7.86804028       7.60504325       4.75023758
C       -7.27595378       6.96654268       5.83494800
C       -6.26185079       6.02646246       5.64049629
H       -0.12241278       0.06465144       2.72988353
H       -1.53663329       1.47701147       4.14895771
H       -3.24000775       3.29291510       0.61061210
H       -1.82671455       1.88295833      -0.78304534
H       -3.12944126       3.09543486       4.36401091
H       -4.47227802       4.35908983       5.10097465
H       -6.12225920       6.15148569       2.23717314
H       -7.89162785       7.79184922       2.60427476
H       -8.65872297       8.33604948       4.89525618
H       -5.81750059       5.54113586       6.50479153
C       -7.71466103       7.27483953       7.17139441
C       -8.08207835       7.53303815       8.29066827
Br      -8.67616109       7.95052348      10.10043945
C        0.88129851      -0.88129851       0.88129851
C        2.26470890      -0.73973721       0.83838666
C        3.06831828      -1.54934657       1.64708127
C        2.49749996      -2.50443634       2.50124946
C        1.10719357      -2.63333514       2.53193253
C        0.29935315      -1.82353895       1.72413171
N        3.38521402      -3.28070663       3.27593950
C        3.07270283      -4.28959033       4.17902190
O        1.93807135      -4.65414411       4.45721314
N        4.23546402      -4.83058219       4.71399602
C        4.35379037      -5.88712556       5.64312023
C        3.26918864      -6.55696002       6.21372562
C        3.47496377      -7.60359052       7.11993976
C        4.76768731      -7.99082585       7.46480795
C        5.85112662      -7.32422301       6.90209483
C        5.65187660      -6.27806086       5.99887208
H        2.72728436      -0.00718830       0.18247510
H        4.14642941      -1.42111518       1.59505788
H        0.61346376      -3.35596005       3.17411115
H       -0.78037615      -1.94196940       1.76503429
H        4.36306783      -3.07458490       3.15123431
H        5.10463506      -4.44001481       4.38769263
H        2.24350065      -6.29137585       5.97604152
H        2.61891345      -8.11548479       7.55335358
H        4.91654470      -8.80670082       8.16678311
H        6.51538508      -5.77534031       5.57270260
C        7.19145166      -7.71826961       7.25117371
C        8.31397388      -8.04828364       7.54352726
Br      10.12899737      -8.58188841       8.01623823
