170
Properties=species:S:1:pos:R:3 pbc="F F F"
O        7.54100226       7.17349102      -5.37498100
C        7.16499048       6.31870921      -4.56701152
N        5.92609947       5.74449753      -4.72333560
N        5.40398163       4.76736981      -3.82876843
C        4.20629897       4.33305332      -4.24964768
H        3.73512777       4.62545681      -5.18397341
C        3.40467514       3.44059199      -3.39379591
C        3.95401206       2.72423208      -2.31927986
C        3.15218728       1.90388297      -1.51977829
C        1.79265229       1.79265229      -1.79265229
C        1.22783562       2.48380125      -2.86225356
C        2.03581245       3.29927723      -3.65929861
C        8.01988836       5.83312776      -3.39549366
S        9.25867013       7.07435997      -2.85050891
C        8.09510901       8.37388308      -2.35495416
C        8.78895313       9.57315881      -1.75040995
C        9.09194745       9.61302715      -0.38286954
C        9.65940381      10.75756875       0.18528279
C        9.93463303      11.86173697      -0.61811104
C        9.67600551      11.82677558      -1.98473301
C        9.11055998      10.68064751      -2.55336190
H        5.35801531       6.05034771      -5.50195434
H        5.01547046       2.81408450      -2.10527685
H        3.60527998       1.36889744      -0.69111219
H        0.16855557       2.40507818      -3.08256387
H        1.59022224       3.84576234      -4.48701630
H        8.54887183       4.92880280      -3.71195448
H        7.40763228       5.59253720      -2.52249667
H        7.38963870       7.96524237      -1.62101472
H        7.50437217       8.70238039      -3.21653702
H        8.87308820       8.75432087       0.24734240
H        9.86902702      10.77685793       1.25029528
H        9.89616602      12.67887224      -2.61899460
H        8.90415259      10.65459772      -3.62024728
C       10.48084451      13.05557296      -0.02649577
C       10.93829663      14.05541061       0.46898202
Br      11.67795801      15.67206352       1.27012770
O       -6.31473450      -5.77639972      -7.99834006
C       -5.34441489      -5.16297689      -7.54331943
N       -5.26455297      -4.93989283      -6.18948680
N       -4.19360302      -4.22498584      -5.58153101
C       -4.33383230      -4.20789964      -4.24726802
H       -5.11131189      -4.73347957      -3.69976652
C       -3.43108953      -3.38514916      -3.42282435
C       -2.20699097      -2.89116717      -3.89936586
C       -1.39016264      -2.09657701      -3.08910890
C       -1.79265229      -1.79265229      -1.79265229
C       -2.99731212      -2.28301547      -1.29356284
C       -3.80716862      -3.07944521      -2.10777445
C       -4.19238217      -4.64842771      -8.40769989
S       -4.68448321      -4.34786888     -10.15118692
C       -5.92595700      -3.06502602      -9.83296324
C       -6.51073735      -2.49618382     -11.10560071
C       -5.88550168      -1.43249948     -11.76984297
C       -6.47403365      -0.85744806     -12.90020807
C       -7.68600689      -1.35419875     -13.37427540
C       -8.30256196      -2.43432972     -12.75062242
C       -7.71229378      -3.01108430     -11.62119130
H       -6.01563337      -5.28668308      -5.60800090
H       -1.89494076      -3.12678217      -4.91310889
H       -0.45289448      -1.72304550      -3.48934962
H       -3.32099493      -2.05061292      -0.28458976
H       -4.75183955      -3.45206095      -1.71910037
H       -3.39580321      -5.39881136      -8.39501455
H       -3.79126433      -3.70631462      -8.02508719
H       -5.46457634      -2.25118383      -9.26013562
H       -6.73779572      -3.46747580      -9.21801805
H       -4.94204177      -1.03948555     -11.39853935
H       -5.98440764      -0.02133478     -13.38984725
H       -9.24165305      -2.83324941     -13.11913040
H       -8.19596636      -3.85207202     -11.13095920
C       -8.31320893      -0.73607122     -14.51363309
C       -8.83849063      -0.21838942     -15.46784516
Br      -9.68782673       0.61865828     -17.01072538
O       -6.60520286       5.58571524       7.89855617
C       -5.66199888       4.90547274       7.48323959
N       -5.42755393       4.83560392       6.13077476
N       -4.37677762       4.06008624       5.56325602
C       -4.33709186       4.22019420       4.23171391
H       -4.96599173       4.90679307       3.67177318
C       -3.43541791       3.38687290       3.41677224
C       -2.35384189       2.67962488       3.96405723
C       -1.53526446       1.88389587       3.15668821
C       -1.79265229       1.79265229       1.79265229
C       -2.85249714       2.49639328       1.22500000
C       -3.66453040       3.29252486       2.03733302
C       -4.70598095       4.14175806       8.40077076
S       -5.46047286       3.70583137      10.01723478
C       -6.79091382       2.64864808       9.38438436
C       -7.60495660       2.01703612      10.49052916
C       -7.20528713       0.80772976      11.07482724
C       -8.00459843       0.18736563      12.03972571
C       -9.20192217       0.78311144      12.42944743
C       -9.59656934       2.00262137      11.88832339
C       -8.79547401       2.62431664      10.92477874
H       -6.04708286       5.34678205       5.51645245
H       -2.15544929       2.74932985       5.03005267
H       -0.71132794       1.34280614       3.61115553
H       -3.06259556       2.43085011       0.16275194
H       -4.49741565       3.83234051       1.59324472
H       -3.83172990       4.77421564       8.58368358
H       -4.37143220       3.20622369       7.94501025
H       -6.35627297       1.85372009       8.76590273
H       -7.45911810       3.22672786       8.73744361
H       -6.27367436       0.33802399      10.76836831
H       -7.68787466      -0.75911789      12.46683291
H      -10.52280817       2.47788000      12.19334469
H       -9.10568369       3.57486415      10.49844975
C      -10.04558961       0.12451155      13.39281207
C      -10.75216110      -0.42706585      14.19962997
Br     -11.89462743      -1.31891985      15.50418626
O        7.72189456      -6.92875280       5.43882691
C        7.33531691      -6.03002788       4.68536642
N        6.02913153      -5.60832798       4.75647310
N        5.49304968      -4.59381709       3.91325310
C        4.21641266      -4.33651910       4.23606821
H        3.68826319      -4.78143079       5.07486400
C        3.40992737      -3.43890979       3.39022589
C        3.98098321      -2.55094819       2.46559260
C        3.17678832      -1.73108851       1.66797173
C        1.79265229      -1.79265229       1.79265229
C        1.20390885      -2.65673490       2.71324668
C        2.01387457      -3.47086350       3.50965022
C        8.24480793      -5.32743698       3.67626486
S        9.66765310      -6.36346216       3.15242375
C        8.71858339      -7.71027821       2.39508465
C        9.60433775      -8.75414429       1.75403984
C       10.04918129      -8.60501563       0.43364722
C       10.80001867      -9.61201181      -0.18034071
C       11.11617972     -10.76698910       0.53131221
C       10.71582986     -10.91628910       1.85539514
C        9.96674762      -9.90757310       2.47024867
H        5.42282076      -6.05859983       5.42889676
H        5.06209354      -2.50574505       2.36699323
H        3.64828704      -1.06052063       0.95648194
H        0.12558106      -2.71343496       2.81718160
H        1.55120880      -4.15191094       4.21988114
H        8.63082139      -4.41585902       4.14294870
H        7.70216680      -5.05239662       2.76810272
H        8.05018906      -7.29480240       1.63090433
H        8.08394884      -8.19480238       3.14453834
H        9.79910536      -7.70666842      -0.12570712
H       11.11907449      -9.48696913      -1.21045394
H       10.96601394     -11.80843769       2.41958122
H        9.64989844     -10.02582037       3.50327877
C       11.85411452     -11.82217844      -0.11337972
C       12.47213491     -12.70589951      -0.65330921
Br      13.47142162     -14.13480175      -1.52632954
C       -0.00445707       0.01189536      -1.78238275
H       -0.66409135       0.67374010      -2.43557963
H        0.65740317      -0.63156657      -2.45157240
C       -0.90989263      -0.90692880      -0.91072765
C        0.90977584       0.90977584      -0.90977584
C       -0.00465871       1.77757030       0.00794375
H       -0.66225468       2.44313916      -0.64384735
H        0.64322798       2.43503045       0.67728295
C       -1.78241447       0.00034974      -0.00472694
H       -2.45427497      -0.65498947       0.64260836
H       -2.43311707       0.67328779      -0.65473579
C       -0.91132561       0.90220522       0.91563759
C       -0.01476271      -0.02253852       1.78660255
H       -0.67934791      -0.69751639       2.42135241
H        0.63392994       0.61504881       2.47327442
C        0.01484550      -1.77751727      -0.01636693
H        0.67870853      -2.42144646      -0.68295456
H       -0.62264859      -2.45592969       0.64226336
C        1.78714474       0.01002794       0.00389507
H        2.44202412       0.67113390       0.66197326
H        2.45385902      -0.65136977      -0.64189061
C        0.91606151      -0.90478549       0.90901405
