141
Properties=species:S:1:pos:R:3 pbc="F F F"
C        0.00000000       0.00000000       0.00000000
C        0.88155318       0.88155318      -0.88155318
C        1.18835866       0.47817604      -2.17753466
C        2.00053544       1.28549731      -2.97846823
C        2.50098471       2.50301415      -2.49535587
C        2.17979806       2.89711239      -1.19425192
C        1.37570404       2.08570309      -0.38573037
N        3.30797709       3.25212890      -3.37081917
C        3.87225599       4.48288277      -3.17135187
O        3.80785276       5.14736726      -2.13837573
N        4.65208095       4.96907525      -4.19418171
C        4.91062985       4.41314239      -5.46272586
C        6.25976455       4.25039544      -5.84830772
C        7.40255902       4.67635003      -4.96359618
C        6.55515167       3.64828709      -7.08221878
C        5.52960729       3.22890792      -7.92333956
C        4.20023250       3.44082323      -7.57249125
C        3.87314070       4.06782373      -6.35736254
C        2.42036305       4.38722314      -6.11317346
H        0.80325866      -0.45727193      -2.57312753
H        2.22734361       0.95314604      -3.98826971
H        2.54922826       3.82623502      -0.77260673
H        1.14502732       2.40685596       0.62712823
H        3.54365650       2.80368002      -4.24222850
H        5.31342475       5.64398677      -3.83034437
H        7.29112797       4.25632300      -3.95927168
H        7.44077925       5.76840850      -4.90244261
H        8.36482049       4.32845705      -5.35303838
H        7.59078647       3.49786909      -7.37988003
H        3.40876092       3.14747793      -8.26001167
H        2.29858069       5.23966102      -5.43810071
H        1.89703275       3.51861849      -5.70516607
H        1.93064598       4.66932523      -7.05256661
C        5.84643051       2.59106909      -9.17489246
C        6.11176995       2.05687907     -10.22306802
Br       6.54080139       1.19313899     -11.91787925
C       -0.88155318      -0.88155318      -0.88155318
C       -1.48079457      -2.01746615      -0.34580865
C       -2.28186869      -2.82447690      -1.15815540
C       -2.49811009      -2.49692933      -2.50431531
C       -1.89429466      -1.35052584      -3.02634188
C       -1.08257727      -0.54617704      -2.21838320
N       -3.32009876      -3.36418422      -3.24664218
C       -3.72967401      -3.24939593      -4.54742070
O       -3.39908168      -2.36212177      -5.33239229
N       -4.50963562      -4.27215097      -5.03355132
C       -5.01301083      -5.40668633      -4.36680094
C       -4.75130097      -6.67398444      -4.93318230
C       -3.98746525      -6.83289118      -6.22214880
C       -5.18955824      -7.82969371      -4.26640560
C       -5.88701492      -7.72770794      -3.06713190
C       -6.19707568      -6.47949375      -2.53697755
C       -5.79790540      -5.30381811      -3.19660347
C       -6.29089433      -3.99458895      -2.63527637
H       -1.33260485      -2.28338316       0.69687375
H       -2.74195902      -3.70658841      -0.72021191
H       -2.02488255      -1.05961402      -4.06357344
H       -0.61479831       0.33690064      -2.64685738
H       -3.60670967      -4.20771554      -2.77513981
H       -4.43317992      -4.31215757      -6.04241840
H       -3.04064133      -6.28582959      -6.18025173
H       -4.58748910      -6.46422725      -7.05991401
H       -3.74457839      -7.88198664      -6.41975089
H       -4.97454579      -8.81191264      -4.68207717
H       -6.78150960      -6.41389479      -1.62084612
H       -6.35271997      -3.21901603      -3.40460642
H       -5.64372034      -3.65436898      -1.82272799
H       -7.30547234      -4.11058707      -2.23647842
C       -6.30954935      -8.92139847      -2.38144423
C       -6.66342194      -9.92111429      -1.80718081
Br      -7.23560398     -11.53757022      -0.87864543
C       -0.88155318       0.88155318       0.88155318
C       -1.60868799       1.92272604       0.31265533
C       -2.40940013       2.73060961       1.12449124
C       -2.49755221       2.49743669       2.50436582
C       -1.76604823       1.44507197       3.06004217
C       -0.95464457       0.64098161       2.25151132
N       -3.32912994       3.35799606       3.24379916
C       -3.62998171       3.31822141       4.57828751
O       -3.17133109       2.52424271       5.39802195
N       -4.45142527       4.31582156       5.04809108
C       -5.09293111       5.35221268       4.34135431
C       -4.89273213       6.67701898       4.78871661
C       -4.05021329       6.99582789       5.99646405
C       -5.47122269       7.73930938       4.07512548
C       -6.24566450       7.48925719       2.94693307
C       -6.49275911       6.18273446       2.53805342
C       -5.95204281       5.09710744       3.24917672
C       -6.37836515       3.71378567       2.82860882
H       -1.56057890       2.11403102      -0.75549566
H       -2.97047315       3.53777577       0.66051043
H       -1.79505348       1.22979642       4.12322011
H       -0.38655763      -0.16733492       2.70553234
H       -3.71716492       4.13704564       2.73535446
H       -4.30343035       4.44261494       6.04171059
H       -3.06813911       6.51929758       5.91928596
H       -4.55442104       6.65218716       6.90502216
H       -3.87863170       8.07261919       6.09506503
H       -5.30569537       8.76512934       4.39771088
H       -7.13668229       6.00010155       1.67946667
H       -6.31993022       3.00031097       3.65610123
H       -5.76826684       3.35837808       1.99417239
H       -7.42589498       3.72128154       2.50536130
C       -6.81299920       8.58894707       2.21044579
C       -7.28814200       9.50993734       1.59363770
Br      -8.05640773      10.99910072       0.59631118
C        0.88155318      -0.88155318       0.88155318
C        1.61875267      -0.31074550       1.91457119
C        2.42882540      -1.12080518       2.71487040
C        2.49896944      -2.50409690       2.49628839
C        1.74888341      -3.06329930       1.45897966
C        0.94512605      -2.25331752       0.64869394
N        3.33763399      -3.24218546       3.35110571
C        3.54412656      -4.59457905       3.38778502
O        3.05106996      -5.42084224       2.62168355
N        4.45538264      -5.04734014       4.31261513
C        5.17265328      -4.32622654       5.28761828
C        6.57777528      -4.46896933       5.31172310
C        7.30690469      -5.37848687       4.35711367
C        7.32975501      -3.72245757       6.23344497
C        6.69666390      -2.86135317       7.12383769
C        5.30915644      -2.76264929       7.14174126
C        4.52741678      -3.51950825       6.25140194
C        3.03119468      -3.46375496       6.42581001
H        1.57114529       0.75750070       2.10546967
H        2.99567118      -0.65572895       3.51735922
H        1.77589586      -4.12685539       1.24531877
H        0.37621985      -2.70749399      -0.15895880
H        3.89902724      -2.70084497       3.98969281
H        4.82646981      -5.94246065       4.01882543
H        7.01176999      -5.17095780       3.32399486
H        7.09000737      -6.42387909       4.59774390
H        8.39116203      -5.23878470       4.41636918
H        8.41433421      -3.80782758       6.24637380
H        4.82478295      -2.11816376       7.87330381
H        2.54424421      -4.37256082       6.05953739
H        2.61464651      -2.59259120       5.91357960
H        2.77557187      -3.38778865       7.48917730
C        7.48134457      -2.08362316       8.04742433
C        8.13851463      -1.43227427       8.82092814
Br       9.20110304      -0.37909822      10.07161838
