181
Properties=species:S:1:pos:R:3 pbc="F F F"
C        0.00000000       0.00000000       0.00000000
C        0.88153265       0.88153265      -0.88153265
C        1.35626100       2.09569303      -0.39366581
C        2.16729593       2.89805109      -1.20083426
C        2.49756170       2.49984177      -2.50547890
C        1.99098512       1.28404186      -2.98688790
C        1.19773691       0.47071462      -2.17338816
C        3.35719479       3.39691383      -3.37574707
C        4.81165111       2.91440117      -3.66350954
C        5.53664407       4.04958191      -4.44437424
C        6.92922828       3.73053125      -4.94576345
C        8.05686416       4.01994781      -4.16501752
C        9.33795687       3.71233931      -4.63139842
C        9.49690992       3.11746709      -5.88124700
C        8.38910811       2.83583833      -6.67356659
C        7.10917959       3.14537674      -6.20853602
C        5.48260693       2.71841204      -2.34130710
O        5.76618279       3.66029270      -1.60424611
O        5.63909612       1.45717307      -1.91354199
C        5.89803332       0.43017118      -2.86194883
C        5.38877504      -0.87418297      -2.24792346
C        7.40539746       0.32687012      -3.08590880
O        5.24758961       0.55435876      -4.12283588
C        4.73317271       1.71306654      -4.54821705
O        4.18354954       1.76132327      -5.64873672
H        1.09989717       2.42921164       0.60873700
H        2.52928855       3.84458810      -0.80163041
H        2.18888242       0.95550570      -4.00547854
H        0.82314191      -0.47256173      -2.56268475
H        3.39812979       4.39001768      -2.90488764
H        2.81307608       3.55715258      -4.31714518
H        5.59682263       4.95762200      -3.82776123
H        4.93116047       4.34833682      -5.31253726
H        7.94939857       4.48892681      -3.18772327
H       10.20267257       3.94099507      -4.01331576
H        8.50552856       2.37891037      -7.65327566
H        6.25354161       2.92747345      -6.84776287
H        4.30424048      -0.82680618      -2.09808552
H        5.84215358      -1.06274463      -1.26924065
H        5.58353072      -1.72865604      -2.90537706
H        7.79715717       1.24725459      -3.52292986
H        7.65354836      -0.48469190      -3.77778135
H        7.93796851       0.17194141      -2.14132433
C       10.81652101       2.79254469      -6.35732683
C       11.92169529       2.52042218      -6.75604369
Br      13.70866864       2.08042310      -7.40073514
C       -0.88153265      -0.88153265      -0.88153265
C       -1.11917337      -2.20496005      -0.52148641
C       -1.93075103      -3.00798218      -1.32744808
C       -2.49843836      -2.49878141      -2.50566259
C       -2.22882178      -1.16987127      -2.86322184
C       -1.43515991      -0.35953176      -2.04714802
C       -3.35483641      -3.39376453      -3.38125475
C       -4.88561282      -3.09845933      -3.40548967
C       -5.56620466      -4.21853820      -4.24585735
C       -7.04687437      -4.04697472      -4.51167389
C       -8.00024656      -4.59756281      -3.64402012
C       -9.36494084      -4.42524722      -3.89150655
C       -9.78177853      -3.70491715      -5.00892832
C       -8.84856668      -3.16341008      -5.88653626
C       -7.48496580      -3.33761688      -5.64050966
C       -5.37347112      -3.17507927      -1.99377568
O       -5.42180060      -4.23524578      -1.37367522
O       -5.62565284      -2.01624552      -1.36791282
C       -6.15148967      -0.92560134      -2.11306231
C       -5.72881902       0.34993332      -1.38362983
C       -7.67605073      -1.01818081      -2.12394483
O       -5.68390759      -0.78946817      -3.45140850
C       -5.09352697      -1.79519441      -4.10573491
O       -4.71087743      -1.62007444      -5.26265765
H       -0.67690312      -2.62283894       0.37937026
H       -2.10528375      -4.04092832      -1.02929499
H       -2.61550710      -0.74616531      -3.78819424
H       -1.24638663       0.67080635      -2.33768465
H       -3.19795764      -4.43415628      -3.06092120
H       -2.93970888      -3.34970008      -4.39796488
H       -5.41758927      -5.19706233      -3.76755425
H       -5.06230162      -4.31064941      -5.21908352
H       -7.69031623      -5.16705195      -2.76868047
H      -10.09229995      -4.85653686      -3.20814659
H       -9.16608850      -2.60675162      -6.76487447
H       -6.76825160      -2.91549844      -6.34502789
H       -4.63703934       0.44442020      -1.38290069
H       -6.05308945       0.34226019      -0.33782036
H       -6.12659606       1.24351567      -1.87717134
H       -8.00663923      -1.92253572      -2.63816667
H       -8.12576607      -0.17014805      -2.65072369
H       -8.07870162      -1.06615611      -1.10637652
C      -11.18790150      -3.52006640      -5.25842463
C      -12.36552948      -3.36525390      -5.46737779
Br     -14.26965433      -3.11493518      -5.80523737
C       -0.88153265       0.88153265       0.88153265
C       -1.38907420       0.37988889       2.07665674
C       -2.19130825       1.19075247       2.88412056
C       -2.50370492       2.50289961       2.49627784
C       -2.00157696       2.98244082       1.27789709
C       -1.18168828       2.18012632       0.48002508
C       -3.39795506       3.35863350       3.37326713
C       -2.71926240       4.54201769       4.12828173
C       -3.78986246       5.17777616       5.06296161
C       -3.37503655       6.43802270       5.79246372
C       -2.80053310       6.37193523       7.06936116
C       -2.41095277       7.53976318       7.73097865
C       -2.59726789       8.77812354       7.12023257
C       -3.17778147       8.86158878       5.85914277
C       -3.56921658       7.69482122       5.19905454
C       -1.61899176       3.96348056       4.95985375
O       -1.84094347       3.25229302       5.93748511
O       -0.36385376       4.12839978       4.51755764
C       -0.01923147       5.33021648       3.84070538
C        1.15798035       4.99663739       2.92385849
C        0.42107458       6.37192324       4.86732772
O       -1.02379487       5.89623396       3.00475543
C       -2.31423011       5.56383178       3.11639441
O       -3.13907929       6.08726692       2.36726332
H       -1.17102739      -0.63860167       2.38794608
H       -2.57911055       0.78071220       3.81568431
H       -2.25125723       3.97928991       0.91931951
H       -0.79494577       2.57452315      -0.45620399
H       -3.88508343       2.70043579       4.10751589
H       -4.21859493       3.72702549       2.74175342
H       -4.12465241       4.44586509       5.81168836
H       -4.69584828       5.41133519       4.48485108
H       -2.65236778       5.41172913       7.56195174
H       -1.96479982       7.47206048       8.72012311
H       -3.33364618       9.82473684       5.37933158
H       -4.03242931       7.78031678       4.21603184
H        0.85557989       4.26448235       2.16661736
H        1.99181832       4.55840398       3.48206396
H        1.51110993       5.88412552       2.38723614
H       -0.40123851       6.62817260       5.53793052
H        0.73938276       7.30162871       4.38439186
H        1.23569203       5.99296794       5.49395834
C       -2.18738869       9.98034538       7.79865846
C       -1.84411485      10.98720617       8.36684015
Br      -1.28907010      12.61521490       9.28554188
C        0.88153265      -0.88153265       0.88153265
C        1.22833787      -0.45645275       2.16082922
C        2.03095262      -1.26775398       2.96747469
C        2.50429010      -2.50217648       2.49641579
C        2.16275754      -2.90257896       1.19657839
C        1.34262742      -2.10227333       0.39693894
C        3.39629709      -3.35655496       3.37700364
C        2.77244801      -4.66438661       3.95272720
C        3.81244979      -5.29063939       4.92751104
C        3.45996562      -6.64853913       5.49701822
C        2.76984044      -6.75998259       6.71200646
C        2.43936302      -8.01735072       7.22498087
C        2.80042192      -9.16800215       6.52719993
C        3.49679857      -9.07479893       5.32691552
C        3.82908178      -7.81846624       4.81554433
C        1.55066937      -4.27117183       4.72048486
O        1.61327066      -3.64256908       5.77488185
O        0.36245053      -4.50341329       4.14394736
C        0.19960391      -5.65883911       3.33171031
C       -0.91794633      -5.34337423       2.33708762
C       -0.22620086      -6.83163269       4.21274455
O        1.32568524      -6.04777615       2.55132287
C        2.56199814      -5.61386806       2.81859009
O        3.49800693      -5.98521320       2.11038940
H        0.88423523       0.50288630       2.53902287
H        2.29166448      -0.91826052       3.96558206
H        2.54031502      -3.83298918       0.77656246
H        1.08184510      -2.43570864      -0.60428880
H        3.74870332      -2.73281993       4.21151186
H        4.30236780      -3.58617437       2.79883167
H        4.00532641      -4.60889582       5.76798363
H        4.78507428      -5.38423896       4.42272132
H        2.48451219      -5.86998649       7.27154997
H        1.90203076      -8.08741808       8.16753457
H        3.78890400      -9.96827870       4.78053189
H        4.38452433      -7.76510972       3.87914387
H       -0.62248288      -4.51620878       1.68179392
H       -1.83740769      -5.03850562       2.84755169
H       -1.13267569      -6.20181035       1.69111707
H        0.55402374      -7.07798829       4.93532959
H       -0.40706913      -7.73407547       3.61963148
H       -1.12690445      -6.59052485       4.78761384
C        2.45170406     -10.46292744       7.05176103
C        2.15965285     -11.54742737       7.49108095
Br       1.68743075     -13.30097203       8.20142410
