197
Properties=species:S:1:pos:R:3 pbc="F F F"
C        0.00000000       0.00000000       0.00000000
C        4.67240409       3.33342787      -3.03070148
O        3.26801588       3.33363479      -3.27971550
C        2.50487417       2.51461287      -2.48509541
C        3.02416658       1.36236115      -1.87301189
C        2.21701632       0.55212349      -1.07049150
C        0.88144002       0.88144002      -0.88144002
C        0.34264074       2.00823313      -1.49578313
C        1.14222754       2.83416593      -2.31134498
C        0.45511143       4.02726501      -2.91983532
O       -0.66804359       4.30870631      -2.50966620
N        1.13625098       4.70778577      -3.91029956
C        0.71159882       5.84625727      -4.63213955
C       -0.51731678       6.48753114      -4.40989728
C       -0.91383050       7.61598590      -5.14295210
C       -0.01524871       8.05405365      -6.10071228
O       -0.16125400       9.11243656      -6.94189857
C        0.99512351       9.11807898      -7.68859819
N        1.84224736       8.15119128      -7.37212150
C        1.20701458       7.46598084      -6.36304895
C        1.59043022       6.33960620      -5.61778794
C        1.07903534      10.18154101      -8.70210499
C       -0.13168182      10.64288112      -9.25605439
C       -0.14993832      11.64770373     -10.21022785
C        1.04743046      12.21380468     -10.63088870
C        2.29641567      11.79527838     -10.11689532
C        3.52753244      12.37025123     -10.53400917
C        4.74959733      11.94498761     -10.00944825
C        4.77498048      10.94123161      -9.05702277
C        3.57949147      10.36349336      -8.62856346
C        2.31505287      10.75747942      -9.13610043
H        5.13916085       2.43583661      -3.44869292
H        4.89335795       3.43481522      -1.96230367
H        5.10041509       4.20067286      -3.54309640
H        4.05845184       1.06018874      -2.01115557
H        2.64073478      -0.33280458      -0.60191884
H       -0.70829639       2.25012768      -1.34299205
H        2.05683729       4.34553423      -4.13950097
H       -1.21096972       6.13038554      -3.65366280
H       -1.86105657       8.11071276      -4.97176705
H        2.54655547       5.87182605      -5.82015104
H       -1.08164717      10.21039533      -8.94452163
H       -1.09380213      11.99170119     -10.62612092
H        0.98369916      13.00115623     -11.37845903
H        5.68413886      12.39295019     -10.33715203
H        5.72054272      10.60355381      -8.64156085
H        3.65864168       9.58328484      -7.87364873
C        3.60408466      13.42404800     -11.51240180
C        3.66819713      14.30660279     -12.33180562
Br       3.77186159      15.73361924     -13.65671231
C       -4.68608893      -3.22395930      -3.12648520
O       -3.27187071      -3.33415355      -3.27534191
C       -2.50686241      -2.51317345      -2.48454659
C       -2.98280991      -1.28897168      -1.98775802
C       -2.17513732      -0.47907473      -1.18541926
C       -0.88144002      -0.88144002      -0.88144002
C       -0.38413348      -2.08174504      -1.38077848
C       -1.18452569      -2.90868099      -2.19453176
C       -0.54465217      -4.18433271      -2.67322689
O        0.52643415      -4.50947958      -2.16728349
N       -1.20538821      -4.88665795      -3.66229014
C       -0.81544439      -6.09865023      -4.27590102
C        0.34791755      -6.80215910      -3.92587008
C        0.71129823      -8.00311968      -4.55328606
C       -0.15093078      -8.44750477      -5.54108166
O       -0.02483492      -9.56985276      -6.29839344
C       -1.12707233      -9.55198394      -7.12274441
N       -1.92293103      -8.51153898      -6.93109013
C       -1.30878206      -7.80021278      -5.92704953
C       -1.66007575      -6.60132443      -5.28642418
C       -1.21883775     -10.67639950      -8.06744408
C       -0.00981819     -11.25432241      -8.50311310
C        0.00033616     -12.32291473      -9.38541469
C       -1.20366332     -12.83721454      -9.85124598
C       -2.45116022     -12.30220323      -9.45522591
C       -3.68960917     -12.82286229      -9.91932139
C       -4.91053193     -12.28217215      -9.51132911
C       -4.92773983     -11.21429560      -8.63119944
C       -3.72530444     -10.68773935      -8.15850450
C       -2.46112151     -11.19888689      -8.54862431
H       -5.05989445      -2.32929000      -3.63450594
H       -4.98348130      -3.23502876      -2.07196677
H       -5.13950352      -4.09510458      -3.60957625
H       -3.98188436      -0.92986706      -2.21804471
H       -2.56535169       0.46264378      -0.80714113
H        0.63479959      -2.38091640      -1.13870652
H       -2.08106572      -4.48165581      -3.97915095
H        1.01373387      -6.43903426      -3.14777823
H        1.60797299      -8.54582221      -4.28357402
H       -2.56545528      -6.08705475      -5.58602254
H        0.94569646     -10.86442228      -8.15454397
H        0.94292966     -12.75674710      -9.71020255
H       -1.14651719     -13.67778091     -10.53901631
H       -5.85072108     -12.68963189      -9.87388810
H       -5.87244089     -10.78667202      -8.30654446
H       -3.79878448      -9.85275019      -7.46404058
C       -3.77567929     -13.93566715     -10.82918801
C       -3.84776302     -14.86764123     -11.59120130
Br      -3.96431631     -16.37456448     -12.82331235
C       -2.73069014       4.45130706       3.85453624
O       -3.30058010       3.25589072       3.32489535
C       -2.49012023       2.49588975       2.51857247
C       -1.42122882       3.04576049       1.79255030
C       -0.61726247       2.24091069       0.98145816
C       -0.88144002       0.88144002       0.88144002
C       -1.94865269       0.32078536       1.57721894
C       -2.77158094       1.11927003       2.39688746
C       -3.89184518       0.40543656       3.10493002
O       -3.88683517      -0.82279490       3.08628865
N       -4.85438022       1.19002494       3.70993114
C       -5.99546680       0.76633205       4.42819679
C       -6.30754538      -0.58333939       4.65590564
C       -7.44862176      -0.97522322       5.37170896
C       -8.24729152       0.05563505       5.83659065
O       -9.40220318      -0.05496144       6.54583937
C       -9.80133624       1.24575682       6.75470762
N       -8.98336333       2.14750579       6.23469102
C       -7.99110554       1.39964150       5.64529734
C       -6.84281172       1.77501672       4.92999592
C      -11.05864670       1.40077637       7.50325826
C      -12.01281806       0.37084021       7.38359543
C      -13.22149248       0.42736089       8.05913989
C      -13.50095490       1.51958456       8.87158438
C      -12.58810632       2.58724184       9.03324120
C      -12.85905697       3.70683679       9.86589908
C      -11.94091530       4.74810352      10.01501437
C      -10.73244718       4.69839391       9.34239377
C      -10.44153972       3.60812054       8.52188803
C      -11.34409104       2.53023449       8.33430719
H       -2.69743388       5.23512030       3.09113620
H       -1.73791896       4.27090028       4.28165759
H       -3.38220265       4.80018279       4.66179891
H       -1.19338293       4.10731030       1.82910291
H        0.20835745       2.68638464       0.43182184
H       -2.14710282      -0.74608810       1.48380861
H       -4.71714730       2.19315287       3.63157232
H       -5.66929482      -1.38010761       4.28389141
H       -7.68941974      -2.01559582       5.54759933
H       -6.63722201       2.82731900       4.77399156
H      -11.81687724      -0.49235541       6.74874796
H      -13.94559604      -0.37707191       7.95549585
H      -14.46002956       1.51884495       9.38443991
H      -12.16051464       5.59887655      10.65484989
H      -10.01043158       5.50297287       9.45225293
H       -9.47439708       3.61869933       8.02247883
C      -14.08297074       3.84579154      10.61177217
C      -15.10799852       3.96216615      11.23644088
Br     -16.76538175       4.15033404      12.24647735
C        2.67599735      -4.27516047       4.08537561
O        3.30984510      -3.25364128       3.31787979
C        2.49355579      -2.49215071       2.51887595
C        1.26846205      -2.96742930       2.02364826
C        0.46356365      -2.16350522       1.21256244
C        0.88144002      -0.88144002       0.88144002
C        2.10182846      -0.39919447       1.34563407
C        2.92739655      -1.19856090       2.16178100
C        4.22116099      -0.57227049       2.60878029
O        4.37017294       0.63090319       2.41105917
N        5.15397396      -1.40585423       3.19450811
C        6.43265552      -1.06592214       3.69141799
C        6.94431875       0.24130896       3.67710185
C        8.21857209       0.54972583       4.17626124
C        8.93868895      -0.51928036       4.68154791
O       10.18967496      -0.48965292       5.21375324
C       10.44591665      -1.79745170       5.55843234
N        9.45227931      -2.62841244       5.28486839
C        8.48791433      -1.82450426       4.72362578
C        7.20876039      -2.11560505       4.22345893
C       11.76923248      -2.03837671       6.15507214
C       12.81903692      -1.18323128       5.76498550
C       14.09650369      -1.32971637       6.28177320
C       14.35044120      -2.33846456       7.20321807
C       13.34251734      -3.23131416       7.63475786
C       13.58757770      -4.26308571       8.58112943
C       12.57598899      -5.13087149       8.99717272
C       11.29828451      -4.99072493       8.48422542
C       11.03168951      -3.98324007       7.55661870
C       12.02701630      -3.08215358       7.09946284
H        2.43147658      -5.13652636       3.45568744
H        1.78778408      -3.89816137       4.60453139
H        3.38894577      -4.60993983       4.84529876
H        0.91491935      -3.97067475       2.24420205
H       -0.48372018      -2.54954605       0.84402316
H        2.41887877       0.60633080       1.07227537
H        4.87992099      -2.37973336       3.28221814
H        6.36532052       1.06901339       3.27677148
H        8.61326564       1.55739571       4.16555331
H        6.84999783      -3.13760271       4.25093203
H       12.64385447      -0.38873803       5.04067729
H       14.89421214      -0.66000137       5.96980647
H       15.36651775      -2.41293729       7.58385937
H       12.77669474      -5.91601138       9.72153496
H       10.50351680      -5.66009669       8.80204389
H       10.00841521      -3.91552103       7.19163901
C       14.87978999      -4.48369733       9.17704713
C       15.96201779      -4.66845955       9.67612821
Br      17.71188860      -4.96720444      10.48310010
