162
Properties=species:S:1:pos:R:3 pbc="F F F"
C       -0.27489105       4.74449530      -2.10503800
O        0.02800763       3.35509627      -2.05153057
C        1.32165709       3.00383136      -2.33299190
C        2.16712400       3.75432147      -3.15264047
C        3.47405361       3.32155793      -3.40517054
C        3.96382981       2.13376887      -2.84508789
C        3.10862772       1.36817920      -2.04478848
C        1.79826877       1.79826877      -1.79826877
C        5.33701260       1.72809733      -3.12270817
C        6.11525924       0.95894969      -2.27864567
S        7.67335749       0.74066178      -2.96331444
C        7.20939093       1.68661830      -4.29770016
N        5.97884881       2.14045203      -4.28163695
N        8.03674629       1.96642534      -5.35304905
C        9.37145747       1.66369172      -5.46674216
O       10.08829620       1.12570701      -4.63298891
C        9.99849109       2.11008468      -6.74863134
C        9.28577878       2.13347695      -7.95664612
C        9.90766744       2.57590974      -9.12831501
C       11.24128224       2.98291998      -9.09511170
Br      12.07638035       3.58356082     -10.68061489
C       11.96436896       2.94349683      -7.90440889
C       11.34435944       2.50260305      -6.73232853
H       -1.26189195       4.88793063      -1.65489089
H       -0.32896104       5.09475931      -3.14043490
H        0.44503670       5.33350542      -1.52624263
H        1.83556582       4.67354004      -3.62487109
H        4.11411298       3.92488805      -4.04752600
H        3.44567371       0.42658059      -1.61970261
H        5.87332850       0.53441489      -1.31546740
H        7.58237329       2.53609927      -6.05175198
H        8.25685143       1.78741369      -8.01382073
H        9.34845941       2.59159628     -10.06073439
H       13.00702118       3.24987923      -7.87575984
H       11.91199096       2.47012611      -5.80370453
C        0.49287420      -4.48222180      -2.58529465
O        0.07186961      -3.14072737      -2.36577671
C       -1.26998313      -2.89651479      -2.49198243
C       -2.12149675      -3.65022186      -3.30236733
C       -3.48101857      -3.32921520      -3.39054831
C       -4.01819643      -2.25220062      -2.67228953
C       -3.16034431      -1.48080068      -1.88045041
C       -1.79826877      -1.79826877      -1.79826877
C       -5.44341198      -1.96238512      -2.78202101
C       -6.19997144      -1.35482905      -1.79805412
S       -7.83209805      -1.23219221      -2.31304345
C       -7.41991839      -2.00182336      -3.77196764
N       -6.15782268      -2.32986328      -3.91325183
N       -8.31982840      -2.26593800      -4.77045428
C       -9.68117505      -2.08916185      -4.73155445
O      -10.35691833      -1.70356909      -3.78650469
C      -10.39012599      -2.47771355      -5.98936758
C       -9.80266276      -2.31984247      -7.25339663
C      -10.49585047      -2.71396995      -8.40207177
C      -11.77693166      -3.25366442      -8.28871784
Br     -12.70839447      -3.78827630      -9.84388531
C      -12.37786234      -3.39511650      -7.03929583
C      -11.68635556      -3.00273927      -5.89019619
H        1.52888191      -4.56651129      -2.24330018
H        0.47470195      -4.72979141      -3.65114372
H       -0.10903773      -5.19043081      -2.00531620
H       -1.75669937      -4.48493785      -3.89233974
H       -4.12464472      -3.93267361      -4.02920870
H       -3.53732842      -0.62017544      -1.33445306
H       -5.90248554      -0.99749954      -0.82322571
H       -7.88775518      -2.72145387      -5.56101549
H       -8.82033467      -1.86883570      -7.36891548
H      -10.03361597      -2.58885853      -9.37831559
H      -13.38024811      -3.80558753      -6.94682461
H      -12.15884147      -3.11171206      -4.91526808
C       -4.97978167       0.10932780       1.48553278
O       -3.73263551       0.64452312       1.05747584
C       -3.18887367       1.62382819       1.84577848
C       -3.94445802       2.47761391       2.65201401
C       -3.31610993       3.46515712       3.41951504
C       -1.92326917       3.62008719       3.39933021
C       -1.16804730       2.78181558       2.57173253
C       -1.79826877       1.79826877       1.79826877
C       -1.30895171       4.65255458       4.22631181
C       -0.02578243       4.59141217       4.73566001
S        0.29125588       5.98825262       5.68033697
C       -1.28212475       6.54885951       5.36272513
N       -2.02151244       5.78462238       4.59480296
N       -1.77852309       7.72990496       5.84779263
C       -1.17813114       8.57854489       6.74521531
O       -0.10654965       8.42402871       7.31641375
C       -1.98395832       9.79252878       7.08072002
C       -2.82271825      10.41129868       6.14188492
C       -3.57215763      11.53452415       6.50521040
C       -3.47494202      12.04474629       7.79962561
Br      -4.49264328      13.56089731       8.28701548
C       -2.62858045      11.45011561       8.73357861
C       -1.87960622      10.32701569       8.37266911
H       -5.17663425      -0.79044360       0.89473892
H       -5.79502519       0.81456182       1.29664616
H       -4.94825686      -0.18406797       2.54059585
H       -5.02700644       2.41277075       2.69419976
H       -3.92751135       4.11839679       4.04061890
H       -0.08907352       2.89453011       2.50835329
H        0.72263013       3.82059430       4.62524663
H       -2.72784375       7.89548891       5.54689189
H       -2.88740609      10.05312125       5.11755850
H       -4.22044354      12.00834067       5.77200587
H       -2.54164237      11.85048184       9.74053604
H       -1.21698823       9.86563706       9.10319631
C        5.08736741      -0.62180696       0.86546788
O        3.73659161      -1.02571524       0.67232761
C        3.19264955      -1.81546480       1.65036600
C        3.94329623      -2.66134117       2.46944854
C        3.31232446      -3.44990574       3.43855188
C        1.92195483      -3.40988207       3.61084968
C        1.16677899      -2.58191484       2.77290158
C        1.79826877      -1.79826877       1.79826877
C        1.30758674      -4.23727017       4.64296119
C        0.12545547      -3.93545930       5.29193983
S       -0.22495188      -5.14803152       6.45425408
C        1.20801274      -5.95771534       6.02798131
N        1.92070092      -5.40414363       5.07609324
N        1.61903236      -7.12822505       6.60896327
C        1.05069411      -7.76831240       7.68288484
O        0.09654111      -7.39676493       8.35368608
C        1.74081313      -9.03275181       8.08364218
C        2.35798103      -9.87291419       7.14500663
C        3.00769169     -11.03688736       7.56731314
C        3.03068826     -11.36620847       8.92241719
Br       3.91324354     -12.93858474       9.48872778
C        2.40241413     -10.54929972       9.86056082
C        1.75348292      -9.38521926       9.44058884
H        5.30831986       0.16246689       0.13507659
H        5.77569259      -1.45185315       0.67868743
H        5.23980374      -0.19998292       1.86499808
H        5.02082701      -2.74380982       2.36934013
H        3.91996171      -4.10122934       4.06533598
H        0.08393862      -2.54957757       2.85844073
H       -0.53101935      -3.08694627       5.16728387
H        2.48948799      -7.46047289       6.22026367
H        2.32217403      -9.65538609       6.08052573
H        3.48419170     -11.68282403       6.83377435
H        2.40876656     -10.80729706      10.91659663
H        1.26100383      -8.74982786      10.17498991
C       -0.00445707       0.01189536      -1.78238275
H       -0.66409135       0.67374010      -2.43557963
H        0.65740317      -0.63156657      -2.45157240
C       -0.90989263      -0.90692880      -0.91072765
C        0.90977584       0.90977584      -0.90977584
C       -0.00465871       1.77757030       0.00794375
H       -0.66225468       2.44313916      -0.64384735
H        0.64322798       2.43503045       0.67728295
C       -1.78241447       0.00034974      -0.00472694
H       -2.45427497      -0.65498947       0.64260836
H       -2.43311707       0.67328779      -0.65473579
C       -0.91132561       0.90220522       0.91563759
C       -0.01476271      -0.02253852       1.78660255
H       -0.67934791      -0.69751639       2.42135241
H        0.63392994       0.61504881       2.47327442
C        0.01484550      -1.77751727      -0.01636693
H        0.67870853      -2.42144646      -0.68295456
H       -0.62264859      -2.45592969       0.64226336
C        1.78714474       0.01002794       0.00389507
H        2.44202412       0.67113390       0.66197326
H        2.45385902      -0.65136977      -0.64189061
C        0.91606151      -0.90478549       0.90901405
