186
Properties=species:S:1:pos:R:3 pbc="F F F"
C        3.61506719       3.68432183       0.70517414
O        2.51016494       3.02520982       0.09927045
C        2.58170234       2.82553412      -1.25421208
C        3.35370005       3.61046437      -2.11636459
C        3.34801192       3.36955257      -3.49627158
C        2.56720644       2.34209573      -4.03757720
C        1.80145513       1.54863431      -3.17411873
C        1.79793019       1.79793019      -1.79793019
C        2.50045044       2.09920177      -5.47209640
C        2.54779258       3.09554623      -6.43008992
S        2.25280684       2.42330501      -7.98246347
C        2.15623326       0.87670813      -7.26881070
N        1.87169948      -0.12789047      -8.15035976
C        1.92658434      -1.47118720      -7.89726240
S        2.69287491      -2.27795029      -6.64738754
N        1.27631312      -2.26916277      -8.82403117
C        0.47865212      -1.87474837      -9.88868211
O        0.43279938      -0.71615331     -10.29954276
C       -0.28874732      -2.95070776     -10.58202933
C       -0.61322978      -4.16781144      -9.96431191
C       -1.30995320      -5.15244800     -10.67224459
C       -1.69860527      -4.91692235     -11.99075803
C       -1.40994185      -3.69983475     -12.60356090
C       -0.70977932      -2.71668617     -11.89904976
N        2.30309280       0.82305745      -5.97106943
H        3.50111156       3.59776176       1.78998773
H        3.62091844       4.75031175       0.45739675
H        4.56257790       3.20901523       0.42919093
H        3.95840813       4.43252819      -1.74744958
H        3.96536162       3.99538442      -4.13636666
H        1.19327846       0.74281538      -3.58207522
H        2.68089564       4.15999709      -6.30403069
H        1.55942220       0.16525461      -9.07322307
H        1.36705497      -3.25311776      -8.61520553
H       -0.35977908      -4.37282671      -8.92799145
H       -1.54936446      -6.09560498     -10.18614804
H       -1.72290415      -3.50552254     -13.62674057
H       -0.49027871      -1.76760947     -12.38594175
C       -2.40529651      -5.93780237     -12.72013550
C       -2.99715043      -6.79278938     -13.33098912
Br      -3.95412816      -8.17523106     -14.31868777
C        0.62796674      -4.18811455      -3.03406707
O        0.11426606      -2.92736067      -2.62300970
C       -1.24895179      -2.79120973      -2.62128701
C       -2.10762065      -3.55340853      -3.41949982
C       -3.49050716      -3.33193862      -3.39139030
C       -4.03754764      -2.34190282      -2.56742892
C       -3.17964810      -1.58471449      -1.75984557
C       -1.79793019      -1.79793019      -1.79793019
C       -5.46504250      -2.05317375      -2.55353236
C       -6.28126740      -2.12445145      -3.66770988
S       -7.84590170      -1.53221390      -3.28045973
C       -7.33340856      -1.29822130      -1.67012222
N       -8.28546153      -0.75367384      -0.85503339
C       -8.22060302      -0.63867080       0.50661428
S       -7.21583469      -1.43127370       1.58479625
N       -9.13513223       0.23917015       1.06478057
C      -10.00736399       1.10032690       0.41445124
O      -10.25224819       1.02475928      -0.78869992
C      -10.71174173       2.10431011       1.26485737
C      -10.21612727       2.52466915       2.50818743
C      -10.93352103       3.44757038       3.27610725
C      -12.13667187       3.96480732       2.79663414
C      -12.62209217       3.57891478       1.54939308
C      -11.90876197       2.65331217       0.78286554
N       -6.09061318      -1.60310279      -1.40350371
H        1.69697104      -4.20471305      -2.80114358
H        0.52308485      -4.32168463      -4.11523366
H        0.15328033      -5.00938348      -2.48629905
H       -1.72983069      -4.31756166      -4.09099354
H       -4.12904359      -3.94760004      -4.02046906
H       -3.59306371      -0.81451733      -1.11058802
H       -6.03908685      -2.43118893      -4.67464765
H       -9.10482588      -0.37146883      -1.32160518
H       -9.07224852       0.27082675       2.07227902
H       -9.26525730       2.17210401       2.89776762
H      -10.54400020       3.76055272       4.24226887
H      -13.55253927       3.98969988       1.16452551
H      -12.29530096       2.35905758      -0.19181018
C      -12.87830545       4.90571382       3.59555502
C      -13.49942359       5.69372301       4.26465126
Br     -14.50371907       6.96786723       5.34652329
C       -4.06784473       3.18692815      -0.66055800
O       -2.83803443       2.71911489      -0.12104501
C       -2.74640819       2.67003318       1.24500717
C       -3.51060989       3.46517084       2.10474828
C       -3.33522278       3.38633538       3.49227791
C       -2.38994122       2.51379498       4.04314318
C       -1.63106499       1.70943510       3.18370809
C       -1.79793019       1.79793019       1.79793019
C       -2.14836692       2.44556579       5.47781590
C       -2.21102461       3.53521271       6.32719141
S       -1.68247107       3.07982376       7.89628049
C       -1.48276852       1.47966841       7.33931515
N       -0.99540987       0.61772293       8.28103596
C       -0.92129938      -0.74422592       8.17558608
S       -1.71437169      -1.76388342       7.11182388
N       -0.09167716      -1.35916895       9.09867331
C        0.76071389      -0.76498065      10.01828040
O        0.71515240       0.43168203      10.29965920
C        1.71397921      -1.66934746      10.72590091
C        2.11086681      -2.90946369      10.20360119
C        2.98530783      -3.72920195      10.92435318
C        3.47798945      -3.30493266      12.15815253
C        3.11598770      -2.06170921      12.67148122
C        2.23867208      -1.24340193      11.95465828
N       -1.75531955       1.26237843       6.07952170
H       -4.05699868       2.98845052      -1.73656360
H       -4.17063823       4.26802676      -0.52483155
H       -4.92095958       2.65147898      -0.23003636
H       -4.24054608       4.17272397       1.72511584
H       -3.95120551       4.01467996       4.13122722
H       -0.89554917       1.02277679       3.59984310
H       -2.47785952       4.55872029       6.10834362
H       -0.62554759       1.04558224       9.12677005
H       -0.08973829      -2.36468349       9.00408795
H        1.77731526      -3.25723257       9.22993349
H        3.28020788      -4.69228341      10.51366990
H        3.50821524      -1.71989819      13.62642732
H        1.96284568      -0.27233020      12.36322945
C        4.36865268      -4.15698913      12.90267842
C        5.11458313      -4.87058641      13.52621886
Br       6.32068958      -6.02441287      14.53443101
C       -0.58174790      -4.31412089       2.86184189
O       -0.09985075      -3.02224873       2.51370634
C        1.25680408      -2.83876015       2.56588431
C        2.11409825      -3.59890004       3.36753072
C        3.48823867      -3.32856358       3.39703382
C        4.02756732      -2.29101894       2.62829312
C        3.17154834      -1.53551853       1.81714130
C        1.79793019      -1.79793019       1.79793019
C        5.44333990      -1.95246781       2.67594091
C        6.22233062      -2.03542632       3.81567179
S        7.77711982      -1.37551128       3.50594422
C        7.31288019      -1.10157870       1.88729319
N        8.27246854      -0.49518611       1.12651412
C        8.25093633      -0.33348182      -0.23175861
S        7.31353918      -1.12117856      -1.37240560
N        9.15208684       0.59521437      -0.72569095
C        9.96953317       1.46219492      -0.01475238
O       10.17495918       1.35185791       1.19308757
C       10.66641878       2.52009919      -0.80374534
C       10.19954229       2.96751661      -2.04875500
C       10.90948059       3.94191923      -2.75771797
C       12.07577905       4.48309111      -2.21745753
C       12.53109515       4.06960104      -0.96770980
C       11.82536118       3.09269208      -0.26008484
N        6.09192076      -1.43971770       1.56558122
H       -1.64070335      -4.35950550       2.59008344
H       -0.50981093      -4.48286127       3.94078311
H       -0.05897679      -5.09808295       2.30329603
H        1.74096836      -4.39945691       3.99796062
H        4.12627937      -3.94391269       4.02692063
H        3.57926721      -0.72848715       1.21041470
H        5.95646951      -2.38651914       4.80193478
H        9.06078131      -0.10176884       1.63534972
H        9.12320642       0.66097451      -1.73308916
H        9.27614062       2.59634850      -2.48440645
H       10.54278977       4.27579232      -3.72581884
H       13.43216414       4.49837508      -0.53547518
H       12.18810223       2.77711238       0.71706372
C       12.81035641       5.47743798      -2.95588181
C       13.42556494       6.31020349      -3.57431214
Br      14.42030510       7.65671488      -4.57426168
C       -0.00445707       0.01189536      -1.78238275
H       -0.66409135       0.67374010      -2.43557963
H        0.65740317      -0.63156657      -2.45157240
C       -0.90989263      -0.90692880      -0.91072765
C        0.90977584       0.90977584      -0.90977584
C       -0.00465871       1.77757030       0.00794375
H       -0.66225468       2.44313916      -0.64384735
H        0.64322798       2.43503045       0.67728295
C       -1.78241447       0.00034974      -0.00472694
H       -2.45427497      -0.65498947       0.64260836
H       -2.43311707       0.67328779      -0.65473579
C       -0.91132561       0.90220522       0.91563759
C       -0.01476271      -0.02253852       1.78660255
H       -0.67934791      -0.69751639       2.42135241
H        0.63392994       0.61504881       2.47327442
C        0.01484550      -1.77751727      -0.01636693
H        0.67870853      -2.42144646      -0.68295456
H       -0.62264859      -2.45592969       0.64226336
C        1.78714474       0.01002794       0.00389507
H        2.44202412       0.67113390       0.66197326
H        2.45385902      -0.65136977      -0.64189061
C        0.91606151      -0.90478549       0.90901405
