165
Properties=species:S:1:pos:R:3 pbc="F F F"
C        0.00000000       0.00000000       0.00000000
C        2.70516316       2.77441780       1.61507816
O        1.60026092       2.11530580       1.00917447
C        1.67179831       1.91563009      -0.34430805
C        2.44379602       2.70056035      -1.20646057
C        2.43810789       2.45964855      -2.58636756
C        1.65730242       1.43219171      -3.12767318
C        0.89155110       0.63873029      -2.26421471
C        0.88802617       0.88802617      -0.88802617
C        1.59054642       1.18929774      -4.56219238
C        1.63788855       2.18564220      -5.52018589
S        1.34290282       1.51340099      -7.07255945
C        1.24632923      -0.03319589      -6.35890667
N        0.96179546      -1.03779450      -7.24045573
C        1.01668031      -2.38109123      -6.98735838
S        1.78297088      -3.18785432      -5.73748351
N        0.36640909      -3.17906680      -7.91412715
C       -0.43125191      -2.78465239      -8.97877809
O       -0.47710464      -1.62605734      -9.38963874
C       -1.19865135      -3.86061179      -9.67212530
C       -1.52313380      -5.07771547      -9.05440789
C       -2.21985723      -6.06235202      -9.76234057
C       -2.60850929      -5.82682638     -11.08085401
C       -2.31984587      -4.60973877     -11.69365688
C       -1.61968334      -3.62659020     -10.98914573
N        1.39318878      -0.08684658      -5.06116540
H        2.59120754       2.68785774       2.69989175
H        2.71101442       3.84040772       1.36730077
H        3.65267387       2.29911121       1.33909495
H        3.04850410       3.52262416      -0.83754556
H        3.05545759       3.08548040      -3.22646263
H        0.28337443      -0.16708864      -2.67217119
H        1.77099162       3.25009306      -5.39412667
H        0.64951817      -0.74464941      -8.16331905
H        0.45715095      -4.16302178      -7.70530150
H       -1.26968311      -5.28273073      -8.01808743
H       -2.45926848      -7.00550900      -9.27624401
H       -2.63280817      -4.41542656     -12.71683655
H       -1.40018274      -2.67751349     -11.47603772
C       -3.31520054      -6.84770639     -11.81023147
C       -3.90705445      -7.70269340     -12.42108510
Br      -4.86403218      -9.08513509     -13.40878375
C        1.45747232      -3.47886413      -1.84311100
O        0.99709657      -2.16929004      -1.53419878
C       -0.35364653      -1.95737004      -1.62071988
C       -1.20998480      -2.71631249      -2.42451966
C       -2.57675805      -2.41669719      -2.49066876
C       -3.10943181      -1.35065876      -1.75707674
C       -2.25467993      -0.59611295      -0.94370322
C       -0.88802617      -0.88802617      -0.88802617
C       -4.51589353      -0.98235710      -1.84378591
C       -5.27141715      -1.07372763      -2.99857187
S       -6.81745804      -0.37318150      -2.73822371
C       -6.38273912      -0.07332734      -1.11597354
N       -7.34493892       0.57078897      -0.39030675
C       -7.34952345       0.76233231       0.96424368
S       -6.45517076      -0.01997194       2.14254263
N       -8.24026333       1.72134519       1.41744870
C       -9.02235373       2.58988357       0.66959638
O       -9.20371568       2.45707235      -0.53983344
C       -9.71249495       3.68017271       1.41946007
C       -9.26308232       4.14500931       2.66451439
C       -9.96638671       5.15033279       3.33592260
C      -11.10818295       5.70467499       2.75798962
C      -11.54517811       5.27339012       1.50771575
C      -10.84616134       4.26568347       0.83760568
N       -5.17698345      -0.43082203      -0.75970214
H        2.50894652      -3.54132021      -1.54679983
H        1.40540655      -3.67008742      -2.91944050
H        0.90519415      -4.23850528      -1.27937900
H       -0.84115287      -3.53874767      -3.02877328
H       -3.21446949      -3.03187499      -3.12105614
H       -2.65742032       0.23302019      -0.36405685
H       -4.99195835      -1.45253277      -3.97072023
H       -8.11292813       0.96988027      -0.92513995
H       -8.23197142       1.80898023       2.42356052
H       -8.35797104       3.76356263       3.12873483
H       -9.61359125       5.49767768       4.30444704
H      -12.42675356       5.71200224       1.04614950
H      -11.19440167       3.93633415      -0.14027398
C      -11.83631283       6.73113130       3.45785698
C      -12.44612160       7.59078846       4.04399589
Br     -13.43213081       8.98078139       4.99173294
C       -1.60650264       3.62836463      -1.37036446
O       -0.84273183       2.60619198      -0.74253157
C       -1.29003272       2.16631404       0.47538970
C       -2.08210322       2.93266760       1.33604612
C       -2.47106341       2.42908479       2.58397580
C       -2.07123240       1.15216016       2.99377474
C       -1.28644515       0.37955218       2.12849877
C       -0.88802617       0.88802617       0.88802617
C       -2.41644585       0.62052311       4.30506758
C       -2.50409173       1.38616388       5.45346105
S       -2.74790811       0.36706243       6.81389271
C       -2.78420891      -0.98074369       5.76857479
N       -2.93544236      -2.17892760       6.40794193
C       -3.19053219      -3.38751877       5.81993404
S       -3.76277623      -3.71129145       4.28111530
N       -2.96561251      -4.49077326       6.62663020
C       -2.39898806      -4.52876224       7.89264797
O       -2.22873740      -3.52420280       8.58194216
C       -2.05966688      -5.87845182       8.43164710
C       -1.83873636      -6.99037890       7.60520115
C       -1.55190705      -8.23869775       8.16692202
C       -1.46806137      -8.37489649       9.55235346
C       -1.65382662      -7.27100407      10.38124969
C       -1.94506867      -6.02391045       9.82171397
N       -2.60809793      -0.73708300       4.49649267
H       -1.24330382       3.73308353      -2.39721383
H       -1.46266401       4.59054860      -0.86909124
H       -2.66781396       3.36122554      -1.41634938
H       -2.39916562       3.93656396       1.07294424
H       -3.09244125       3.04995525       3.22500412
H       -0.97267619      -0.61757505       2.43335584
H       -2.38723563       2.45305421       5.57492151
H       -2.81315806      -2.16282057       7.41785032
H       -3.19445903      -5.35871416       6.16368580
H       -1.85930344      -6.91524419       6.52161434
H       -1.39024465      -9.09585673       7.51707862
H       -1.57570397      -7.36861488      11.46151273
H       -2.08689274      -5.16630116      10.47774991
C       -1.18436853      -9.66431180      10.12726781
C       -0.94677578     -10.74419713      10.60875859
Br      -0.56260839     -12.49028037      11.38728845
C       -1.55725625      -3.21137763       2.21038143
O       -1.02870927      -1.96768143       1.76742009
C        0.33646302      -1.85634526       1.73892818
C        1.19575426      -2.61965288       2.53540979
C        2.58163076      -2.42385263       2.47864061
C        3.13118782      -1.45875184       1.62722765
C        2.27240629      -0.70063405       0.82145575
C        0.88802617      -0.88802617       0.88802617
C        4.56311506      -1.19627042       1.58265107
C        5.39802569      -1.26247827       2.68321269
S        6.96568220      -0.70573031       2.25745074
C        6.42830096      -0.49121628       0.65252277
N        7.37495978       0.02134821      -0.18915488
C        7.28746065       0.11322022      -1.55129297
S        6.24932248      -0.68010965      -2.59683205
N        8.20721140       0.96423090      -2.14151106
C        9.10631306       1.82087140      -1.52256787
O        9.37160612       1.76232976      -0.32279959
C        9.81292514       2.79658833      -2.40347463
C        9.30239956       3.20364396      -3.64519698
C       10.02207517       4.09953922      -4.44240464
C       11.24275784       4.60332015      -3.99391935
C       11.74377789       4.23097459      -2.74873107
C       11.02809110       3.33228026      -1.95293865
N        5.17563467      -0.77819696       0.41367598
H       -2.63043764      -3.21272199       1.99688917
H       -1.43516787      -3.32753649       3.29175275
H       -1.10730330      -4.05075929       1.66923413
H        0.81665222      -3.36473338       3.22728822
H        3.22040329      -3.03969003       3.10730729
H        2.68763373       0.05023833       0.15106158
H        5.16873016      -1.54677303       3.69970816
H        8.20933912       0.39687601       0.25572469
H        8.12662798       0.97906018      -3.14813713
H        8.33848273       2.86150539      -4.01130375
H        9.62072505       4.40226790      -5.40699062
H       12.68823068       4.63160092      -2.38802795
H       11.42694867       3.04847914      -0.98012804
C       11.98642376       5.51622236      -4.82287686
C       12.60924397       6.28077795      -5.51712878
Br      13.61629158       7.51699969      -6.63967540
