157
Properties=species:S:1:pos:R:3 pbc="F F F"
C        0.00000000       0.00000000       0.00000000
C        0.79207148      -0.94463801      -4.01637326
O        0.82822810      -0.73751388      -2.60944968
C        1.26246322       0.48845475      -2.17959788
C        2.07197125       1.33904707      -2.93457845
C        2.47914982       2.57481211      -2.41566394
C        2.09924704       2.98308587      -1.12913383
C        1.29537563       2.12546402      -0.36966060
C        0.88882515       0.88882515      -0.88882515
C        2.53167293       4.28850790      -0.63587100
C        2.56430945       4.66454467       0.69543238
S        3.10530758       6.29080816       0.83380936
C        3.28265065       6.35230998      -0.86112928
N        3.74091607       7.54546713      -1.33606411
C        3.98614088       7.76919345      -2.67045847
O        3.86239492       6.96403450      -3.58959639
C        4.50755043       9.17758039      -2.95606201
O        4.39443760      10.03576189      -1.82268306
C        4.83641554      11.32188562      -1.98805533
C        5.44417564      11.83894408      -3.13517373
C        5.86259483      13.17379227      -3.17021815
C        5.67062541      13.99226092      -2.05932316
Br       6.24121331      15.79242728      -2.11116991
C        5.06395143      13.48841220      -0.91274975
C        4.64819733      12.15458176      -0.88048626
N        2.96804902       5.26712064      -1.51627009
H        1.80189163      -1.06631450      -4.42047400
H        0.25638958      -0.13648574      -4.52625696
H        0.24608584      -1.87483086      -4.20205606
H        2.41440666       1.07106594      -3.92875127
H        3.10295514       3.22486213      -3.03014814
H        0.96054796       2.41274913       0.62260450
H        2.30847486       4.09523228       1.57696003
H        3.90181504       8.29303830      -0.67456221
H        3.91242908       9.57649921      -3.78625940
H        5.56010712       9.06710468      -3.24257472
H        5.61316059      11.23554400      -4.02161856
H        6.33664803      13.56161551      -4.06896203
H        4.90856551      14.12127637      -0.04348437
H        4.17357376      11.76596561       0.01747623
C        0.56128429      -4.15486591      -0.27022510
O        0.51874370      -2.74728904      -0.47161855
C       -0.60072646      -2.24731524      -1.08247415
C       -1.44470066      -2.99876878      -1.90212733
C       -2.56655516      -2.40671951      -2.49635121
C       -2.86357784      -1.05091774      -2.29697116
C       -2.01157877      -0.29636955      -1.48255194
C       -0.88882515      -0.88882515      -0.88882515
C       -4.05462280      -0.48002332      -2.92140572
C       -4.27300551       0.87028799      -3.13070422
S       -5.81019979       1.11060848      -3.86271506
C       -6.04404618      -0.57854802      -3.87349572
N       -7.23060746      -0.97895432      -4.41288553
C       -7.57731368      -2.30296380      -4.54551531
O       -6.89752864      -3.27900274      -4.23949444
C       -8.94890109      -2.50156628      -5.19072546
O       -9.68091465      -1.28170321      -5.29026470
C      -10.92613527      -1.36487743      -5.85534380
C      -11.50501669      -2.51495107      -6.39832569
C      -12.78609709      -2.46171697      -6.95879120
C      -13.48936588      -1.25920978      -6.97363383
Br     -15.21689981      -1.19266302      -7.73524767
C      -12.92349342      -0.10846103      -6.43315893
C      -11.64346282      -0.16464135      -5.87516118
N       -5.07701715      -1.30045353      -3.37396906
H        0.73816808      -4.68040535      -1.21381386
H       -0.34919041      -4.51676039       0.21979000
H        1.40459940      -4.37097525       0.39306482
H       -1.25719879      -4.04717156      -2.10985352
H       -3.21525220      -3.01865648      -3.12405674
H       -2.21760744       0.75124288      -1.28432804
H       -3.63680231       1.71289146      -2.90283626
H       -7.87874213      -0.26759223      -4.72308119
H       -9.49696800      -3.21477805      -4.56344164
H       -8.76551570      -2.91455637      -6.18971444
H      -10.99136945      -3.47125153      -6.40770217
H      -13.22277052      -3.36428602      -7.38016902
H      -13.46682526       0.83230607      -6.43880706
H      -11.20615138       0.73713940      -5.45305116
C       -2.40281583       3.05538268      -1.59439178
O       -1.39596123       2.27073286      -0.96653020
C       -1.57187784       1.99499718       0.36364083
C       -2.36036890       2.76251674       1.22271113
C       -2.48008810       2.41510415       2.57443362
C       -1.80655298       1.30375883       3.10115493
C       -1.00901117       0.54050929       2.24097980
C       -0.88882515       0.88882515       0.88882515
C       -1.97542932       0.96773302       4.51288950
C       -1.11883844       0.16695402       5.24762928
S       -1.70258244       0.00307431       6.85664962
C       -3.01076903       1.02333732       6.46198357
N       -3.87253427       1.25753902       7.49237402
C       -4.96210450       2.08818615       7.37550214
O       -5.29576525       2.73442941       6.38583116
C       -5.76943634       2.20320481       8.66855168
O       -5.37068376       1.24024218       9.64195662
C       -6.04377370       1.26773009      10.83485271
C       -7.02712627       2.19076524      11.20040194
C       -7.63116802       2.11506488      12.46037236
C       -7.25397730       1.11467527      13.35355692
Br      -8.07018664       1.01998114      15.05464272
C       -6.27772621       0.18859627      12.99879090
C       -5.67556543       0.26754538      11.74015454
N       -3.04873346       1.46813272       5.23457356
H       -2.33562477       4.10204202      -1.28161566
H       -3.40253642       2.64922571      -1.40560133
H       -2.22760036       3.01985927      -2.67414860
H       -2.89060121       3.64464753       0.87897512
H       -3.11051196       3.02563965       3.22181381
H       -0.48812155      -0.34074889       2.60331993
H       -0.20486213      -0.32191790       4.94380288
H       -3.69893127       0.79560525       8.37487904
H       -6.82226757       2.05021272       8.40270740
H       -5.60226096       3.21742520       9.05010035
H       -7.34950274       2.98569473      10.53512568
H       -8.39309426       2.84206003      12.73207127
H       -5.98019004      -0.59586046      13.68899667
H       -4.91401268      -0.45923151      11.46728198
C       -1.61872029      -2.77012271       2.71240431
O       -1.01908703      -1.65448645       2.06476448
C        0.33865575      -1.70203878       1.88982132
C        1.19889322      -2.48324375       2.66345981
C        2.57887819      -2.46721818       2.42352951
C        3.13178448      -1.66290052       1.41678174
C        2.26934946      -0.87315304       0.64799776
C        0.88882515      -0.88882515       0.88882515
C        4.57465762      -1.69198494       1.18940928
C        5.29444659      -0.71590266       0.52307248
S        6.95500094      -1.15627644       0.45102899
C        6.59414684      -2.57299590       1.32894717
N        7.67240244      -3.36843253       1.58161234
C        7.58377393      -4.53024256       2.31177631
O        6.57851263      -4.99368414       2.84382905
C        8.92763198      -5.24100803       2.47255282
O        9.93594428      -4.68734597       1.62959230
C       11.17577567      -5.26516584       1.70541499
C       11.55014625      -6.29163434       2.57651286
C       12.85881072      -6.78688800       2.56090654
C       13.79218493      -6.25773555       1.67228900
Br      15.55848509      -6.92770165       1.65862375
C       13.42936500      -5.23722165       0.79852673
C       12.12193146      -4.74400752       0.81732636
N        5.34340362      -2.74420151       1.66383461
H       -1.39542119      -2.76763409       3.78383823
H       -1.31478802      -3.71404208       2.24690675
H       -2.70335961      -2.67735033       2.59932032
H        0.83350628      -3.11151023       3.46920735
H        3.22769798      -3.09463353       3.03563391
H        2.65394003      -0.25278873      -0.15603617
H        4.95337443       0.20968825       0.08306093
H        8.57038369      -3.08796279       1.21106908
H        8.76469350      -6.29462087       2.21587331
H        9.21330755      -5.13108417       3.52539480
H       10.85455759      -6.73114079       3.28462477
H       13.13650000      -7.58412222       3.24660334
H       14.15100411      -4.82133136       0.10099079
H       11.84309095      -3.94725442       0.13171778
