122
Properties=species:S:1:pos:R:3 pbc="F F F"
C        1.79167449       1.79167449      -1.79167449
C        3.10405826       1.40538494      -2.06291584
C        3.91351388       2.21769030      -2.85773464
C        3.40783224       3.40957324      -3.37917143
C        2.08938549       3.78240679      -3.11088848
C        1.27902613       2.97980950      -2.30960597
N        1.58181909       5.03309395      -3.58207035
S        1.92365748       6.38319691      -2.60100968
O        3.33357970       6.36237440      -2.27144219
O        1.33257662       7.53301522      -3.24965718
C        1.08336505       6.16812843      -1.04918234
C        1.51709405       5.68524852       0.17408208
C        0.47910429       5.67158914       1.15216099
C       -0.69632465       6.14553116       0.62733284
S       -0.58016063       6.57276101      -1.00736914
H        3.50620971       0.48044079      -1.65666134
H        4.94189273       1.92829494      -3.06164555
H        4.05701648       4.04780087      -3.97366488
H        0.25524432       3.27500287      -2.09799045
H        1.88328887       5.26354569      -4.53015085
H        2.53637111       5.35819133       0.34676241
H        0.60126146       5.33658853       2.17525861
C       -1.91446224       6.26343315       1.38617402
C       -2.93465247       6.36217606       2.02170351
Br      -4.58421379       6.52183501       3.04930093
C       -1.79167449      -1.79167449      -1.79167449
C       -2.15096512      -3.06652791      -1.35486601
C       -2.94567980      -3.87686900      -2.16639003
C       -3.37916029      -3.40936314      -3.40805348
C       -3.02317521      -2.12760301      -3.83190254
C       -2.22147887      -1.31719830      -3.02976443
N       -3.40348272      -1.66384901      -5.12965166
S       -2.37532425      -2.12540220      -6.40713761
O       -2.12221351      -3.54701714      -6.29816564
O       -2.93327416      -1.56411429      -7.61786057
C       -0.79400211      -1.35388303      -6.15279068
C        0.37883633      -1.82234255      -5.58475428
C        1.40849930      -0.83549547      -5.57153626
C        0.97099922       0.33809908      -6.13097197
S       -0.64404540       0.28172623      -6.63765034
H       -1.81348621      -3.43910806      -0.39071758
H       -3.21794108      -4.87697567      -1.83691647
H       -3.97434933      -4.06071382      -4.04341908
H       -1.94148542      -0.32236973      -3.36438248
H       -4.35340790      -1.92910257      -5.39447494
H        0.48075459      -2.83028676      -5.19826786
H        2.40559859      -0.99098077      -5.17720919
C        1.79813600       1.50866615      -6.26959905
C        2.49086306       2.48901607      -6.38569923
Br       3.61094413       4.07415898      -6.57342340
C       -1.79167449       1.79167449       1.79167449
C       -2.29532738       2.99024307       1.28678859
C       -3.09005789       3.80194635       2.09693459
C       -3.37948049       3.41168081       3.40541560
C       -2.87954802       2.20485256       3.89828018
C       -2.07712399       1.39447104       3.09684657
N       -3.11198750       1.82751038       5.25748552
S       -2.02870676       2.48055545       6.39860186
O       -1.91077215       3.90289739       6.15372676
O       -2.43598603       1.98443828       7.69482471
C       -0.41149004       1.81958447       6.06960131
C        0.66620282       2.32938440       5.36507891
C        1.77397514       1.43132130       5.34118627
C        1.48750311       0.27986800       6.02950878
S       -0.08019372       0.25017711       6.66959868
H       -2.07055349       3.30284938       0.26990897
H       -3.47457493       4.74413820       1.71312010
H       -3.97635621       4.06615357       4.03597244
H       -1.68497804       0.45859340       3.48466619
H       -4.05707971       2.03758441       5.58232128
H        0.64792650       3.30449658       4.89122995
H        2.71859965       1.63144358       4.84974744
C        2.42252084      -0.80361115       6.18892889
C        3.20559819      -1.71102494       6.32244322
Br       4.47176804      -3.17823629       6.53832461
C        1.79167449      -1.79167449       1.79167449
C        3.17962108      -1.71340768       1.67933029
C        3.98468518      -2.52853902       2.47571463
C        3.40001637      -3.41532294       3.38123760
C        2.00986355      -3.47870918       3.49410804
C        1.20028327      -2.67382310       2.69433523
N        1.39833643      -4.43075085       4.36789612
S        1.19009638      -5.99402226       3.72374543
O        2.43913015      -6.40862806       3.11963809
O        0.56653095      -6.79292387       4.75579420
C        0.03702071      -5.88894214       2.37471297
C        0.22643640      -5.79572422       1.00609987
C       -1.00495260      -5.71219388       0.29129115
C       -2.07431205      -5.74640838       1.14977734
S       -1.62632665      -5.84630415       2.77999202
H        3.64210547      -1.02808928       0.97311710
H        5.06731405      -2.48152195       2.38299722
H        4.03719962      -4.06532577       3.97595685
H        0.11880418      -2.72908050       2.78035295
H        1.88261428      -4.53327110       5.26110003
H        1.21012998      -5.78763164       0.55003840
H       -1.08764085      -5.63658801      -0.78635579
C       -3.44548359      -5.69541023       0.71287025
C       -4.59383975      -5.65269928       0.34696056
Br      -6.45063454      -5.58363928      -0.24468446
C       -0.00445707       0.01189536      -1.78238275
H       -0.66409135       0.67374010      -2.43557963
H        0.65740317      -0.63156657      -2.45157240
C       -0.90989263      -0.90692880      -0.91072765
C        0.90977584       0.90977584      -0.90977584
C       -0.00465871       1.77757030       0.00794375
H       -0.66225468       2.44313916      -0.64384735
H        0.64322798       2.43503045       0.67728295
C       -1.78241447       0.00034974      -0.00472694
H       -2.45427497      -0.65498947       0.64260836
H       -2.43311707       0.67328779      -0.65473579
C       -0.91132561       0.90220522       0.91563759
C       -0.01476271      -0.02253852       1.78660255
H       -0.67934791      -0.69751639       2.42135241
H        0.63392994       0.61504881       2.47327442
C        0.01484550      -1.77751727      -0.01636693
H        0.67870853      -2.42144646      -0.68295456
H       -0.62264859      -2.45592969       0.64226336
C        1.78714474       0.01002794       0.00389507
H        2.44202412       0.67113390       0.66197326
H        2.45385902      -0.65136977      -0.64189061
C        0.91606151      -0.90478549       0.90901405
