138
Properties=species:S:1:pos:R:3 pbc="F F F"
C        4.73450290      11.99418469      -3.19627206
O        5.19348331      10.96192848      -4.06079073
C        4.76080259       9.69340177      -3.79112415
C        5.24389297       8.71020556      -4.65697536
C        4.87929007       7.36932457      -4.49108402
C        4.02094649       6.98646543      -3.45279124
C        3.53955238       7.98159751      -2.58877237
C        3.90532029       9.32357431      -2.75514551
C        3.64910607       5.58313610      -3.29052919
N        4.01913932       4.52932355      -3.99645996
C        3.36408823       3.47460513      -3.39630481
C        2.61226698       3.94838797      -2.33579633
O        2.78973162       5.29606995      -2.25943978
C        1.81445600       3.17128648      -1.50999488
C        1.80117849       1.80117849      -1.80117849
C        2.57635035       1.23309774      -2.83925392
N        2.42336241      -0.13135664      -3.17695810
C        3.33344037       2.09577916      -3.67067072
Br       4.34012088       1.41872837      -5.13265355
H        5.17176802      12.93712522      -3.53813335
H        5.06954137      11.82580616      -2.16728294
H        3.64513291      12.09495028      -3.24580147
H        5.91126181       8.98873150      -5.46936620
H        5.27135526       6.62361252      -5.18113215
H        2.87011445       7.72438773      -1.77020204
H        3.50238594      10.04988766      -2.05722170
H        1.23730386       3.61037312      -0.70553879
H        2.14265243      -0.71583875      -2.39293067
H        3.20887656      -0.51094917      -3.70060256
C       -6.14452423      -2.21118143     -11.56925399
O       -6.39312838      -3.22267637     -10.60039777
C       -5.78563477      -3.07514024      -9.38455349
C       -6.04771617      -4.09539611      -8.46796159
C       -5.48628294      -4.06701739      -7.18639832
C       -4.65020202      -3.01317114      -6.79683000
C       -4.39384614      -1.99193263      -7.72414350
C       -4.95581335      -2.02123401      -9.00699275
C       -4.07007190      -2.99642761      -5.45627184
N       -4.19382536      -3.87441813      -4.47667933
C       -3.43478696      -3.34691218      -3.45329903
C       -2.87764923      -2.15039093      -3.86841112
O       -3.27720834      -1.91887136      -5.14916166
C       -2.06297345      -1.33637183      -3.09639209
C       -1.80117849      -1.80117849      -1.80117849
C       -2.29623940      -3.03494931      -1.31751330
N       -2.11503147      -3.39236897       0.03843657
C       -3.15941366      -3.79225192      -2.14822468
Br      -3.92627462      -5.42178115      -1.54344704
H       -6.69039612      -2.47716621     -12.47946427
H       -5.08028275      -2.15977863     -11.82256909
H       -6.51735128      -1.23916842     -11.22936495
H       -6.69498756      -4.92182774      -8.75254419
H       -5.70771855      -4.87627337      -6.49210801
H       -3.74979515      -1.15562608      -7.45928299
H       -4.72290165      -1.20452639      -9.68206727
H       -1.67260306      -0.40142342      -3.47918929
H       -1.27294562      -3.00053852       0.45373979
H       -2.22403738      -4.38864594       0.21415337
C       -7.19983777       1.68869146      11.03643042
O       -7.22424071       2.81895924      10.17300257
C       -6.49641143       2.72977940       9.01913768
C       -6.53936864       3.86477710       8.20692814
C       -5.83669301       3.90562112       6.99738453
C       -5.07629779       2.80743179       6.57647358
C       -5.04036343       1.67100917       7.39854966
C       -5.74362084       1.63100360       8.60941567
C       -4.34696843       2.86377834       5.31202459
N       -4.26090690       3.84861630       4.43539961
C       -3.44623998       3.34606807       3.44269012
C       -3.07132613       2.05507638       3.77004877
O       -3.64148193       1.73858468       4.96517474
C       -2.26161761       1.23655042       2.99756934
C       -1.80117849       1.80117849       1.80117849
C       -2.10277589       3.12885014       1.41707598
N       -1.72606139       3.60336569       0.13953680
C       -2.97328247       3.89091142       2.23569637
Br      -3.48721572       5.65421486       1.75007223
H       -7.81824434       1.91978267      11.90899958
H       -6.18434731       1.48556630      11.39271686
H       -7.63034075       0.80880108      10.54674282
H       -7.12492277       4.72719857       8.51723816
H       -5.88801642       4.80403676       6.38404674
H       -4.46135910       0.79713766       7.10620747
H       -5.67948308       0.72590179       9.20411044
H       -2.01996708       0.22693124       3.30631745
H       -0.88688217       3.16084861      -0.22798643
H       -1.70787813       4.61848035       0.07217148
C        5.22245186     -11.88646437       2.81604342
O        5.57645349     -10.88134941       3.75839961
C        5.08833948      -9.62443629       3.53255273
C        5.46905518      -8.66703194       4.47498675
C        5.03926511      -7.34018093       4.36025261
C        4.21707862      -6.94583267       3.29729187
C        3.83862522      -7.91515002       2.35614702
C        4.26961264      -9.24305881       2.47136866
C        3.77638420      -5.55730598       3.18908118
N        4.04890273      -4.52653546       3.96948463
C        3.36856755      -3.47607976       3.39035086
C        2.70172067      -3.92893388       2.26579673
O        2.95815079      -5.25892351       2.12816706
C        1.90655273      -3.15020379       1.43898085
C        1.80117849      -1.80117849       1.80117849
C        2.48721655      -1.25181354       2.90967192
N        2.24039834       0.08156514       3.31013069
C        3.24627805      -2.11834168       3.73527053
Br       4.13456570      -1.47179096       5.28514615
H        5.69308281     -12.82255896       3.13138482
H        5.60160958     -11.64322277       1.81779812
H        4.13933984     -12.04744599       2.79909883
H        6.10696868      -8.95483384       5.30755698
H        5.35184006      -6.61453696       5.10972291
H        3.20016967      -7.64836458       1.51616998
H        3.94553236      -9.94949705       1.71446590
H        1.39834042      -3.57354084       0.58133451
H        1.96936135       0.69332001       2.54370300
H        2.97456784       0.47235008       3.89631220
C       -0.00445707       0.01189536      -1.78238275
H       -0.66409135       0.67374010      -2.43557963
H        0.65740317      -0.63156657      -2.45157240
C       -0.90989263      -0.90692880      -0.91072765
C        0.90977584       0.90977584      -0.90977584
C       -0.00465871       1.77757030       0.00794375
H       -0.66225468       2.44313916      -0.64384735
H        0.64322798       2.43503045       0.67728295
C       -1.78241447       0.00034974      -0.00472694
H       -2.45427497      -0.65498947       0.64260836
H       -2.43311707       0.67328779      -0.65473579
C       -0.91132561       0.90220522       0.91563759
C       -0.01476271      -0.02253852       1.78660255
H       -0.67934791      -0.69751639       2.42135241
H        0.63392994       0.61504881       2.47327442
C        0.01484550      -1.77751727      -0.01636693
H        0.67870853      -2.42144646      -0.68295456
H       -0.62264859      -2.45592969       0.64226336
C        1.78714474       0.01002794       0.00389507
H        2.44202412       0.67113390       0.66197326
H        2.45385902      -0.65136977      -0.64189061
C        0.91606151      -0.90478549       0.90901405
