198
Properties=species:S:1:pos:R:3 pbc="F F F"
C        1.79106323       1.79106323      -1.79106323
C        1.24742132       2.41652192      -2.91047601
C        2.05411709       3.22273182      -3.72017678
C        3.40774031       3.41207906      -3.40387758
C        3.94167066       2.78025116      -2.27083186
C        3.13402627       1.96751358      -1.46946175
N        4.22683688       4.24380658      -4.22396882
C        5.53856095       4.02896963      -4.62974348
S        6.48839994       2.61138213      -4.30356395
C        8.03161010       3.04198066      -5.17501721
C        9.08843898       1.96874487      -4.97429514
O       10.23764535       2.26699751      -4.65206736
N        8.62991203       0.67702392      -5.18166580
C        9.43585298      -0.48113705      -5.07428874
C       10.76322468      -0.52241038      -5.52566571
F       11.29594826       0.50773219      -6.19897408
C       11.54166528      -1.66653301      -5.38007268
C       10.98633776      -2.78962557      -4.78694088
F       11.73193380      -3.89153420      -4.63472770
C        9.66245353      -2.79985806      -4.36517076
C        8.88452736      -1.65081775      -4.52467655
Br       7.08105730      -1.70837003      -3.92241310
N        5.92572133       4.97358977      -5.45176561
N        4.89092308       5.84263766      -5.60662502
C        3.87689343       5.44386544      -4.85645224
C        2.64540986       6.23032093      -4.72069661
C        2.12893663       6.86939676      -5.85284564
C        0.97982350       7.63036287      -5.72582107
N        0.31994887       7.79390334      -4.56155759
C        0.84912618       7.19844718      -3.47300785
C        2.00081706       6.42765137      -3.49760929
H        0.19939327       2.27759965      -3.16684188
H        1.60425985       3.66386270      -4.60784656
H        4.97223835       2.93214996      -1.95767843
H        3.56116533       1.48564029      -0.59325635
H        8.41952009       3.98358883      -4.77317687
H        7.85194276       3.15475457      -6.24888266
H        7.63462112       0.54796446      -5.02135180
H       12.56438564      -1.67985729      -5.73924645
H        9.25869335      -3.70127380      -3.91432380
H        2.61916530       6.78709591      -6.81880967
H        0.55213537       8.14582639      -6.58103602
H        0.30750839       7.36739815      -2.54622131
H        2.37524883       6.00584910      -2.57143226
C       -1.79106323      -1.79106323      -1.79106323
C       -1.23057213      -2.86408229      -2.47976482
C       -2.03637705      -3.67133013      -3.28931851
C       -3.41011536      -3.41041719      -3.40316441
C       -3.96295423      -2.32943552      -2.70036391
C       -3.15209917      -1.51922493      -1.89967749
N       -4.23315289      -4.24135976      -4.22009963
C       -5.25944433      -3.86120459      -5.07662515
S       -5.73530393      -2.22993764      -5.43810445
C       -7.07326669      -2.53624860      -6.63909268
C       -7.73022963      -1.23450817      -7.06674118
O       -8.95508799      -1.12058577      -7.08103647
N       -6.83404321      -0.23679715      -7.41776139
C       -7.21145506       1.05052139      -7.86807100
C       -8.29840963       1.26112545      -8.72919583
F       -8.96169723       0.22831315      -9.26927045
C       -8.66467917       2.54161862      -9.13214441
C       -7.93052633       3.62714033      -8.68026706
F       -8.28243572       4.86335740      -9.05604899
C       -6.82250404       3.45454135      -7.85980355
C       -6.45495235       2.16508227      -7.46851609
Br      -4.93782954       1.97889751      -6.33616834
N       -5.72556588      -4.90064384      -5.72486699
N       -5.03221639      -5.99567174      -5.31229763
C       -4.15782676      -5.62999339      -4.38939094
C       -3.32838951      -6.60125971      -3.66677819
C       -2.79408553      -7.68431233      -4.37278117
C       -2.02919041      -8.61522006      -3.69159697
N       -1.76450401      -8.53909499      -2.37181080
C       -2.31424445      -7.50716519      -1.69917157
C       -3.10311514      -6.53275260      -2.29020998
H       -0.16672522      -3.07689142      -2.40021816
H       -1.55665294      -4.47676240      -3.84255378
H       -5.02897282      -2.11389501      -2.71919892
H       -3.59483310      -0.68595952      -1.35926934
H       -7.83637029      -3.16749214      -6.17242336
H       -6.68593442      -3.03831514      -7.53133044
H       -5.92276508      -0.30780972      -6.97336257
H       -9.50551195       2.68326661      -9.80152946
H       -6.26538933       4.32764522      -7.53399924
H       -2.97916411      -7.81005516      -5.43585160
H       -1.60217777      -9.47229494      -4.20452507
H       -2.10148669      -7.48588444      -0.63375671
H       -3.52982243      -5.75051457      -1.67219318
C       -1.79106323       1.79106323       1.79106323
C       -2.80095388       2.55816609       1.21529927
C       -3.60802047       3.36778277       2.02122245
C       -3.41074622       3.40319590       3.40975483
C       -2.39319952       2.62199395       3.97756021
C       -1.58250501       1.82131555       3.16718104
N       -4.24195954       4.22053930       4.23211343
C       -3.87318877       5.00741637       5.31666892
S       -2.25233827       5.26421748       5.88679028
C       -2.56759040       6.41414691       7.26687067
C       -1.28136719       6.74478189       8.00532990
O       -1.22804264       6.69526392       9.23340365
N       -0.22473116       7.08779165       7.17607893
C        1.06210285       7.45501384       7.63609369
C        1.25892083       8.25204635       8.77335449
F        0.22113867       8.81081760       9.41297560
C        2.53725387       8.57288818       9.21957064
C        3.63533410       8.10284178       8.51614539
F        4.86892239       8.39946777       8.94458193
C        3.47940942       7.34548078       7.36169487
C        2.19274874       7.03677983       6.91435508
Br       2.02885113       5.98835698       5.33559452
N       -4.90263070       5.68378197       5.76466403
N       -5.98010333       5.35962086       5.00046157
C       -5.61552175       4.46216633       4.09952303
C       -6.57745577       3.82898774       3.18998390
C       -7.59783976       4.61260848       2.64073080
C       -8.52076010       4.01568842       1.79955891
N       -8.49424068       2.70779273       1.47337639
C       -7.52404454       1.95927070       2.03726596
C       -6.56319288       2.46295427       2.89993056
H       -2.96404583       2.53987432       0.13991466
H       -4.36140712       3.98258106       1.53198095
H       -2.23037088       2.57947878       5.05221707
H       -0.79890029       1.21968246       3.62147921
H       -3.25748466       5.94382261       7.97497852
H       -3.00684981       7.34765223       6.90107796
H       -0.27126932       6.69121179       6.24145626
H        2.66844179       9.19374513      10.09847146
H        4.36273790       7.00339025       6.83109099
H       -7.68207261       5.67064419       2.87235408
H       -9.33020455       4.59034661       1.35844663
H       -7.54275898       0.90541209       1.77295677
H       -5.83337808       1.78719814       3.33195396
C        1.79106323      -1.79106323       1.79106323
C        2.86646049      -2.47664860       1.23131016
C        3.67371548      -3.28619953       2.03711069
C        3.41040392      -3.40316386       3.41012917
C        2.32703176      -2.70348019       3.96224171
C        1.51684057      -1.90279251       3.15136851
N        4.24133481      -4.22008404       4.23319342
C        3.86086076      -5.07928932       5.25712398
S        2.22938317      -5.44478292       5.72917994
C        2.53543645      -6.64773684       7.06543468
C        1.23326549      -7.07911732       7.71909617
O        1.11703755      -7.09596724       8.94370542
N        0.23793519      -7.43032638       6.82034018
C       -1.04923817      -7.88380688       7.19443597
C       -1.26026852      -8.74740425       8.27934429
F       -0.22769272      -9.28677540       8.94357184
C       -2.54068570      -9.15348962       8.64240104
C       -3.62566740      -8.70228057       7.90703989
F       -4.86183314      -9.08108763       8.25587281
C       -3.45252426      -7.87937655       6.80091395
C       -2.16311650      -7.48493273       6.43656994
Br      -1.97620358      -6.34933895       4.92196500
N        4.90064550      -5.72643839       5.72399282
N        5.99620278      -5.31046133       5.03352166
C        5.63042999      -4.38658576       4.16019534
C        6.60189364      -3.66054246       3.33399131
C        7.68730755      -4.36346002       2.80041146
C        8.61836888      -3.67904518       2.03859338
N        8.54022943      -2.35890365       1.77627671
C        7.50597242      -1.68928179       2.32532700
C        6.53118867      -2.28367981       3.11120924
H        3.08114355      -2.39466646       0.16802480
H        4.48111452      -3.83698294       1.55787166
H        2.10949731      -2.72476025       5.02780917
H        0.68170344      -1.36481859       3.59353994
H        3.16433340      -6.18132317       7.83062921
H        3.03994188      -7.53827573       6.67736240
H        0.30983524      -6.98405470       5.91004743
H       -2.68265734      -9.82474682       9.48168531
H       -4.32518552      -7.55417333       6.24275554
H        7.81472627      -5.42664029       2.98370430
H        9.47723301      -4.18952379       1.61224098
H        7.48306365      -0.62350529       2.11455890
H        5.74696114      -1.66796973       3.53759931
C       -0.00445707       0.01189536      -1.78238275
H       -0.66409135       0.67374010      -2.43557963
H        0.65740317      -0.63156657      -2.45157240
C       -0.90989263      -0.90692880      -0.91072765
C        0.90977584       0.90977584      -0.90977584
C       -0.00465871       1.77757030       0.00794375
H       -0.66225468       2.44313916      -0.64384735
H        0.64322798       2.43503045       0.67728295
C       -1.78241447       0.00034974      -0.00472694
H       -2.45427497      -0.65498947       0.64260836
H       -2.43311707       0.67328779      -0.65473579
C       -0.91132561       0.90220522       0.91563759
C       -0.01476271      -0.02253852       1.78660255
H       -0.67934791      -0.69751639       2.42135241
H        0.63392994       0.61504881       2.47327442
C        0.01484550      -1.77751727      -0.01636693
H        0.67870853      -2.42144646      -0.68295456
H       -0.62264859      -2.45592969       0.64226336
C        1.78714474       0.01002794       0.00389507
H        2.44202412       0.67113390       0.66197326
H        2.45385902      -0.65136977      -0.64189061
C        0.91606151      -0.90478549       0.90901405
