162
Properties=species:S:1:pos:R:3 pbc="F F F"
C        1.79170409       1.79170409      -1.79170409
C        1.26066683       2.36094652      -2.95017157
C        2.06205506       3.17398234      -3.75359435
C        3.39387010       3.40296465      -3.39121874
C        3.92286007       2.84327535      -2.22356534
C        3.11754345       2.02883005      -1.42495148
S        4.39170032       4.49405464      -4.37182835
O        3.50680390       5.37932264      -5.09084316
O        5.48039635       4.98963358      -3.55754701
N        5.02597494       3.44449806      -5.53319993
C        6.34691116       2.85869742      -5.22089834
C        6.80991590       1.92030167      -6.32847634
O        8.00506941       1.77296172      -6.56958434
N        5.77059606       1.24675397      -6.94119156
C        5.85860609       0.31513267      -7.99718003
C        7.01539704       0.09182334      -8.74548908
C        7.02093265      -0.86534766      -9.76767611
C        5.86973435      -1.60396010     -10.04003347
C        4.70403287      -1.38372280      -9.31446055
C        4.70811914      -0.42143213      -8.30921655
F        3.58187208      -0.21238480      -7.60788283
H        0.22377641       2.18650648      -3.22815941
H        1.64108547       3.63175105      -4.64637065
H        4.94882122       3.04460892      -1.92254939
H        3.52641896       1.59504273      -0.51537192
H        4.94281782       3.87800292      -6.45653640
H        6.30334713       2.28531084      -4.29024238
H        7.09093317       3.65789573      -5.14163315
H        4.84662096       1.37922766      -6.53345742
H        7.92885068       0.65297067      -8.56873134
H        7.93213251      -1.02503532     -10.34017641
H        3.79867808      -1.94811701      -9.51126041
C        5.89054945      -2.60203652     -11.07782449
C        5.90798210      -3.43792552     -11.94697447
Br       5.93616921      -4.78948733     -13.35231647
C       -1.79170409      -1.79170409      -1.79170409
C       -3.16686205      -1.55911481      -1.84580806
C       -3.97402069      -2.35832660      -2.65728446
C       -3.39452146      -3.39074341      -3.40278862
C       -2.01473209      -3.61603254      -3.35893613
C       -1.21243545      -2.81521484      -2.54367470
S       -4.40809194      -4.35986647      -4.48962489
O       -5.57708883      -3.58004101      -4.81983987
O       -3.56726773      -4.95366345      -5.50664576
N       -4.95467980      -5.58522796      -3.46376516
C       -4.14908935      -6.82477125      -3.45264631
C       -4.72627178      -7.84902744      -2.48339469
O       -4.60224537      -9.05281446      -2.69255564
N       -5.31182717      -7.27598075      -1.37073366
C       -5.93651480      -7.94032571      -0.29407828
C       -6.25739821      -9.29864302      -0.29666823
C       -6.86301918      -9.88291436       0.82267243
C       -7.14476118      -9.10957542       1.94852888
C       -6.84570033      -7.75156659       1.96249630
C       -6.25484078      -7.18048767       0.83942489
F       -5.96435477      -5.86925258       0.85623726
H       -3.61556021      -0.75298597      -1.26989612
H       -5.04309337      -2.16373612      -2.71237769
H       -1.55683886      -4.39786773      -3.96127294
H       -0.13913208      -2.98726370      -2.51043783
H       -5.96037769      -5.71396632      -3.60301313
H       -3.12077937      -6.61273923      -3.14538175
H       -4.16329519      -7.27809355      -4.44907331
H       -5.21276394      -6.26626251      -1.28027959
H       -6.06122255      -9.93164354      -1.15768659
H       -7.10583657     -10.94317056       0.80173352
H       -7.05701226      -7.13347259       2.82866337
C       -7.74704296      -9.72303784       3.10374337
C       -8.25145394     -10.23681261       4.07123551
Br      -9.06704385     -11.06754297       5.63558847
C       -1.79170409       1.79170409       1.79170409
C       -3.16204838       1.87094058       1.53879596
C       -3.97164154       2.66970622       2.34828400
C       -3.39708719       3.38939270       3.40157359
C       -2.02597326       3.30024509       3.66348240
C       -1.22046753       2.50173858       2.84911887
S       -4.43540498       4.34702142       4.47515690
O       -5.77137339       3.80546540       4.40013092
O       -3.75276363       4.53815753       5.73665578
N       -4.50127600       5.83102093       3.67137600
C       -3.50102631       6.83623278       4.08924782
C       -3.64583873       8.12441788       3.28843729
O       -3.35404121       9.20952463       3.78404964
N       -4.05881522       7.91280450       1.98692187
C       -4.29067282       8.88714458       0.99310139
C       -4.34934705      10.25874862       1.24461379
C       -4.56796303      11.15999046       0.19530761
C       -4.72402003      10.69034503      -1.10855733
C       -4.68358621       9.32606615      -1.37488174
C       -4.47751931       8.44010584      -0.32172159
F       -4.43607363       7.12303496      -0.58173849
H       -3.60845269       1.30700501       0.72298460
H       -5.04244846       2.71574482       2.16101390
H       -1.58121253       3.83401616       4.50075084
H       -0.15469675       2.42917354       3.05296333
H       -5.47129075       6.15657327       3.64949312
H       -2.48656536       6.45666140       3.93567359
H       -3.65737244       7.09053453       5.14255508
H       -4.12855130       6.94103634       1.68971840
H       -4.24083636      10.66206149       2.24765483
H       -4.61072816      12.22541743       0.41112801
H       -4.80267822       8.94138634      -2.38224307
C       -4.92596358      11.62532689      -2.18495304
C       -5.09509130      12.40837420      -3.08643445
Br      -5.36855652      13.67449547      -4.54405364
C        1.79170409      -1.79170409       1.79170409
C        1.71120110      -1.67995369       3.18063013
C        2.51006789      -2.49048533       3.98907853
C        3.38995108      -3.40226788       3.39583453
C        3.46167992      -3.52379775       2.00422308
C        2.66215599      -2.70885223       1.20031676
S        4.35217860      -4.48325427       4.42215044
O        3.67960824      -4.60364567       5.69371579
O        4.74161123      -5.64044752       3.64551819
N        5.72870361      -3.55195550       4.72301382
C        6.86436232      -3.76201773       3.80012687
C        8.03982102      -2.86093221       4.15794067
O        9.19462505      -3.21579991       3.93719052
N        7.65181973      -1.63734657       4.66937528
C        8.48772263      -0.58475652       5.09843963
C        9.86627019      -0.70785409       5.27858519
C       10.62519022       0.39402007       5.69209095
C       10.00632113       1.62248989       5.92197648
C        8.63168659       1.75900549       5.76208952
C        7.88709232       0.65345023       5.36226147
F        6.55994608       0.78837707       5.20580108
H        1.02312098      -0.97452008       3.64080125
H        2.43255309      -2.41493925       5.07171483
H        4.12203896      -4.25354543       1.54039514
H        2.71470256      -2.80389189       0.11823916
H        5.95514694      -3.60241715       5.71979305
H        6.57002553      -3.53838024       2.77049459
H        7.21331837      -4.79658533       3.88055835
H        6.65172152      -1.44423082       4.66335370
H       10.38283095      -1.65007985       5.11764188
H       11.69846287       0.27846116       5.82727189
H        8.13208592       2.70617216       5.93590773
C       10.79734693       2.75619936       6.32518986
C       11.45983103       3.70568104       6.66288106
Br      12.53101179       5.24091262       7.20889917
C       -0.00445707       0.01189536      -1.78238275
H       -0.66409135       0.67374010      -2.43557963
H        0.65740317      -0.63156657      -2.45157240
C       -0.90989263      -0.90692880      -0.91072765
C        0.90977584       0.90977584      -0.90977584
C       -0.00465871       1.77757030       0.00794375
H       -0.66225468       2.44313916      -0.64384735
H        0.64322798       2.43503045       0.67728295
C       -1.78241447       0.00034974      -0.00472694
H       -2.45427497      -0.65498947       0.64260836
H       -2.43311707       0.67328779      -0.65473579
C       -0.91132561       0.90220522       0.91563759
C       -0.01476271      -0.02253852       1.78660255
H       -0.67934791      -0.69751639       2.42135241
H        0.63392994       0.61504881       2.47327442
C        0.01484550      -1.77751727      -0.01636693
H        0.67870853      -2.42144646      -0.68295456
H       -0.62264859      -2.45592969       0.64226336
C        1.78714474       0.01002794       0.00389507
H        2.44202412       0.67113390       0.66197326
H        2.45385902      -0.65136977      -0.64189061
C        0.91606151      -0.90478549       0.90901405
