162
Properties=species:S:1:pos:R:3 pbc="F F F"
C        3.88452309       4.46425069      -5.52357969
O        4.21351096       4.23248349      -4.15779184
C        3.38748149       3.42677234      -3.41692007
C        2.32620546       2.69508689      -3.96550197
C        1.52858831       1.88331145      -3.15430333
C        1.79138262       1.79138262      -1.79138262
C        2.84757911       2.50130332      -1.22750899
C        3.64926159       3.32899495      -2.03152334
C        4.75221498       4.07356586      -1.33910239
O        5.14353303       3.71799890      -0.23087237
N        5.22543111       5.20806261      -1.98287392
C        6.32247100       6.00251341      -1.70812565
S        6.57356822       7.27195392      -2.77017303
N        7.03956938       5.64750130      -0.60059401
C        8.29451068       6.03902951      -0.12054197
C        9.27708232       6.63825271      -0.89290635
C       10.50599065       6.94921672      -0.31135560
C       10.72700302       6.65086225       1.02728794
Br      12.40752432       7.08558684       1.78210457
C        9.70390098       6.03531536       1.74381341
C        9.84835716       5.67443301       3.19298253
N        8.50883067       5.71587008       1.17328167
H        2.91075189       4.95609945      -5.61049063
H        3.91907025       3.53777724      -6.10515073
H        4.63985435       5.14146051      -5.93498612
H        2.09263378       2.72752974      -5.02550412
H        0.70716949       1.32511413      -3.59856554
H        3.04664422       2.42252059      -0.16003002
H        4.78528803       5.43902391      -2.86647995
H        6.56157013       5.03176328       0.05663460
H        9.14970277       6.83788771      -1.94778336
H       11.27902998       7.41209361      -0.91797140
H        8.91476600       5.25497158       3.58249563
H       10.08431194       6.56108515       3.78937127
H       10.63310235       4.92316172       3.32362685
C       -5.56515970      -4.31676823      -3.99042553
O       -4.17005162      -4.18899860      -4.24473607
C       -3.42787533      -3.38791455      -3.41538403
C       -3.93252482      -2.81205537      -2.24221414
C       -3.11767484      -2.01323106      -1.43529719
C       -1.79138262      -1.79138262      -1.79138262
C       -1.26656100      -2.36278758      -2.94704284
C       -2.07953708      -3.15869235      -3.77155044
C       -1.43935961      -3.71795798      -5.00756564
O       -0.21655645      -3.76877683      -5.10707102
N       -2.29989328      -4.08360916      -6.03286520
C       -2.05489587      -4.77253500      -7.20567919
S       -3.39610268      -5.05180952      -8.16778298
N       -0.75022346      -5.11677237      -7.42066887
C       -0.13787096      -5.97756433      -8.33864686
C       -0.79567288      -6.98313548      -9.02943302
C       -0.07006616      -7.80505953      -9.89143727
C        1.29673333      -7.60657295     -10.04073770
Br       2.24922385      -8.74243798     -11.21779245
C        1.89974369      -6.58839308      -9.30675355
C        3.36872436      -6.29778141      -9.40075059
N        1.19564515      -5.79519235      -8.45187188
H       -6.06445181      -3.34591949      -4.06697067
H       -5.75249653      -4.78862590      -3.02087579
H       -5.98322669      -4.97035336      -4.76272092
H       -4.95764213      -2.96823316      -1.91979235
H       -3.52884474      -1.57241070      -0.52959372
H       -0.22709001      -2.18466181      -3.21744301
H       -3.28880475      -3.94105678      -5.86093037
H       -0.06216707      -4.61037907      -6.86415267
H       -1.84832239      -7.19067132      -8.89638013
H       -0.58362688      -8.59799863     -10.42746948
H        3.63071850      -5.42601595      -8.79194451
H        3.65214141      -6.07433698     -10.43383024
H        3.95111485      -7.14883353      -9.03491854
C       -4.23567555       4.05831974       5.57835817
O       -4.19295490       4.24356644       4.16726495
C       -3.38735368       3.41745339       3.42636683
C       -2.72440921       2.30391029       3.95847481
C       -1.92596675       1.49615544       3.14408090
C       -1.79138262       1.79138262       1.79138262
C       -2.44997267       2.88660827       1.23981048
C       -3.24654312       3.71195368       2.05128308
C       -3.90321453       4.88174128       1.37992743
O       -4.02150950       4.91275935       0.15813545
N       -4.27906487       5.93179269       2.20551008
C       -5.04152340       7.05315783       1.93842882
S       -5.30336239       8.07038288       3.24194991
N       -5.46280007       7.18000660       0.64485803
C       -6.40168562       8.01876582       0.03363071
C       -7.40807384       8.69175035       0.70841719
C       -8.31096179       9.47059049      -0.01498932
C       -8.19064054       9.55623566      -1.39629887
Br      -9.43507220      10.62109779      -2.34516341
C       -7.16656933       8.84375428      -2.01492068
C       -6.95661131       8.87345544      -3.50025911
N       -6.29380361       8.06940006      -1.31178459
H       -3.24616776       4.21089505       6.02027916
H       -4.64466459       3.07745065       5.83988298
H       -4.90762623       4.81764978       5.99102497
H       -2.81064765       2.02943525       5.00558475
H       -1.41680636       0.63745148       3.57659132
H       -2.33978548       3.10955169       0.17985766
H       -4.07731223       5.82066280       3.19281686
H       -4.96296849       6.61387811      -0.04014779
H       -7.55429062       8.60498724       1.77609598
H       -9.10434121       9.99233289       0.51242089
H       -6.06790407       8.29665440      -3.77731652
H       -6.80365742       9.89987259      -3.84750420
H       -7.81535715       8.43402731      -4.01674724
C        5.55385311      -4.36537871       3.95312164
O        4.17180075      -4.18673088       4.24525466
C        3.42869118      -3.38832830       3.41415442
C        3.91377423      -2.86402792       2.20899217
C        3.09868787      -2.06494962       1.40256560
C        1.79138262      -1.79138262       1.79138262
C        1.28573663      -2.31113383       2.97952096
C        2.09958521      -3.10670720       3.80348747
C        1.48155321      -3.60832634       5.07500369
O        0.26145540      -3.61811575       5.21283314
N        2.36211406      -3.96947727       6.08477632
C        2.13302253      -4.61481471       7.28527282
S        3.49444544      -4.90650496       8.21474478
N        0.82587981      -4.91172556       7.55005932
C        0.21668359      -5.72503425       8.51236431
C        0.86503306      -6.72928594       9.21392238
C        0.14212092      -7.50193138      10.12251065
C       -1.21278086      -7.25667578      10.30668241
Br      -2.16203574      -8.32642907      11.54661325
C       -1.80735211      -6.24283057       9.55992447
C       -3.26328185      -5.90402820       9.68906130
N       -1.10657209      -5.49799885       8.65999231
H        6.08430347      -3.40864289       3.98439561
H        5.69668184      -4.87182272       2.99349366
H        5.97582822      -5.00807159       4.73240116
H        4.92321081      -3.06161619       1.86084064
H        3.49461900      -1.66460000       0.47163016
H        0.26100508      -2.09273951       3.27545025
H        3.34905298      -3.86295687       5.87878205
H        0.13643662      -4.40119927       6.99906292
H        1.90631120      -6.97333438       9.05572827
H        0.64796300      -8.29393181      10.66720017
H       -3.51767882      -5.04328211       9.06163867
H       -3.50761116      -5.64086625      10.72277073
H       -3.88212986      -6.74721349       9.36755359
C       -0.00445707       0.01189536      -1.78238275
H       -0.66409135       0.67374010      -2.43557963
H        0.65740317      -0.63156657      -2.45157240
C       -0.90989263      -0.90692880      -0.91072765
C        0.90977584       0.90977584      -0.90977584
C       -0.00465871       1.77757030       0.00794375
H       -0.66225468       2.44313916      -0.64384735
H        0.64322798       2.43503045       0.67728295
C       -1.78241447       0.00034974      -0.00472694
H       -2.45427497      -0.65498947       0.64260836
H       -2.43311707       0.67328779      -0.65473579
C       -0.91132561       0.90220522       0.91563759
C       -0.01476271      -0.02253852       1.78660255
H       -0.67934791      -0.69751639       2.42135241
H        0.63392994       0.61504881       2.47327442
C        0.01484550      -1.77751727      -0.01636693
H        0.67870853      -2.42144646      -0.68295456
H       -0.62264859      -2.45592969       0.64226336
C        1.78714474       0.01002794       0.00389507
H        2.44202412       0.67113390       0.66197326
H        2.45385902      -0.65136977      -0.64189061
C        0.91606151      -0.90478549       0.90901405
